$ Center body
$ 13001 - node for avionics battery
$ 3002  - node for avionics cover; a little bit difference in cg location
$ 3002 - node also for flight computer
$ 
$ 3004 - node for proplusion battery
$ 3006 - engine motor
INIT MASTER(S)
ID model updating of mAEWing1
TIME 100
SOL 200
CEND
TITLE = Model updating of mAEWing1 v1.0
ECHO = NONE
DISP = ALL
ANALYSIS = MODES
DSAPRT(START=1,END=LAST)=ALL
DESOBJ(MIN) = 403
DESSUB = 90001
SUBCASE 1
   LABEL = MODAL ANALYSIS
   METHOD = 101
BEGIN BULK
$ Direct Text Input for Bulk Data
PARAM , POST ,-1
PARAM,PRTMAXIM, YES
$ GROUND POINT FOR WEIGHT GENERATION
PARAM,GRDPNT,28888
$ PRE_PROPVERT WEIGHT TO MASS (1/386)  
PARAM ,WTMASS,.002591
$ PRE_PROPVERT FROM IN/SEC TO KNOTS
PARAM ,VREF,20.254
EIGRL    100                     10      0
EIGR     101    MGIV                            10
         MASS
INCLUDE DESVAR_HATI_CB2.dat
$1------$2------$3------$4------$5------$6------$7------$8------$9------$0                             
$=====================================================
$                  GRIDS for fuselage
$=====================================================
$ nose of fuselage
$1------$2------$3------$4------$5------$6------$7------$8------$9------$0    
GRID    3001            -15.55   0.     0.
GRID    9001            -12.36   0.     0.
GRID    13001           -10.93   0.     0.
GRID    3002            -6.490   0.     0.
GRID    3000             0.      0.     0.
$ C.G. location is grid 28888
GRID	28888           3.48     0.     0.
GRID    3004            3.730    0.     0.
GRID    9002            7.36     0.     0.
GRID    3005            8.66000  0.     0.
GRID    3006            16.7710  0.     0.
GRID    3007            18.00    0.     0.
$
GRID    999011          1.5457   -3.825 0.
GRID    1010            3.09142  -7.65  0.
GRID    1011            0.8000   -7.65  0.
GRID    1012            8.66     -7.65  0.
GRID    999021          1.5457   3.825  0.
GRID    2010            3.09142  7.65   0.
GRID    2011            0.800    7.65   0.
GRID    2012            8.66     7.65   0.
$ servos locations
GRID    100001          10.170   -4.855 0.
GRID    200001          10.170   4.855  0.
$======================================================
$                  fuselage rod elements
$======================================================
CBAR    3001    3007    3001    9001    0.      0.      1.
CBAR    3002    3007    9001    13001   0.      0.      1.
CBAR    13001   3007    13001   3002    0.      0.      1.
CBAR    3003    3007    3002    3000    0.      0.      1.
CBAR    3004    3007    3000    28888   0.      0.      1.
CBAR    3005    3007    28888   3004    0.      0.      1.
CBAR    3006    3007    3004    9002    0.      0.      1.
CBAR    3007    3007    9002    3005    0.      0.      1.
CBAR    3008    3007    3005    3006	0.      0.      1.
CBAR    3009    3007    3006    3007    0.      0.      1.
$
PBARL   3007    901             BAR
$       DIM1    DIM2    NSM
        0.5     1.680
$ 901 - Pirch plywood
MAT1     901    2.01e+6         .25     .02493
$=====================================================================
$                      FRONT SPAR TOP+BOTTOM 
$=====================================================================
$ left wing
CBEAM   10002   201     1011    3000    0.0     0.0     1.0
$ CBEAM   10003   202     1012    3005    0.0     0.0     1.0
$ Modified Connections
CBEAM   10031   202     1012    101001  0.0     0.0     1.0
CBEAM   10032   202     101001  3005    0.0     0.0     1.0
$ right wing
CBEAM   20002   201     2011    3000    0.0     0.0     1.0
$CBEAM   20003   202     2012    3005    0.0     0.0     1.0
CBEAM   20031   202     2012    202002  0.0     0.0     1.0
CBEAM   20032   202     202002  3005    0.0     0.0     1.0 
$------------------- FRONT SPAR TOP+BOTTOM ---------------------------
$Elem    PID    MID      A      I1      I2      I12     J       NSM
PBEAM   201     905     0.686   3.9322e15.179e-2        0.3165e1
PBEAM   202     905     0.482   2.4322e15.179e-2        0.1105e1
$ centerbody foam+cover mass amd mass moments of inertia; 
$ If we consider the cb foam+cover as uniform beam; the mass moment of inertia for the beam
$ Referenced Coordinate Frames for control surfaces and body flaps
$1------$2------$3------$4------$5------$6------$7------$8------$9------$0
$ foam + cover converts into uniform beam; distributed mass;lbs/in
PBEAM   101     903     .1E-10  5.098e-31.529e+1        0.02146
CBEAM   1001    101     3000    999011  0.0     0.0     1.0
                        0.01    0.0     0.0     0.01    0.0     0.0  
CBEAM   1011    101     999011  1010    0.0     0.0     1.0
                        0.01    0.0     0.0     0.01    0.0     0.0  
$
CBEAM   2001    101     3000    999021  0.0     0.0     1.0
                        0.01    0.0     0.0     0.01    0.0     0.0  
CBEAM   2011    101     999021  2010    0.0     0.0     1.0
                        0.01    0.0     0.0     0.01    0.0     0.0  
$ Change of the cg location lead to the moment of inertia around the elastic axis
$1------$2------$3------$4------$5------$6------$7------$8------$9------$0
$$ $ LHS
$$ $ Ixx
$ CMASS2  270001  1.0491  3000     4                                           
$ CMASS2  270002  1.0491  1010     4                                           
$ CMASS2  270003  2.09813 999011   4    
$ $ IYY  
$ CMASS2  270011  1.0491  3000     5                                           
$ CMASS2  270012  1.0491  1010     5                                           
$ CMASS2  270013  2.09813 999011   5                                      
$ $ RHS 
$ CMASS2  280001  1.0491  3000     4                                           
$ CMASS2  280002  1.0491  2010     4                                           
$ CMASS2  280003  2.09813 999021   4     
$ 
$ CMASS2  280011  1.0491  3000     5                                           
$ CMASS2  280012  1.0491  2010     5                                           
$ CMASS2  280013  2.09813 999021   5        
$ Change of the cg location lead to the moment of inertia around the elastic axis
$1------$2------$3------$4------$5------$6------$7------$8------$9------$0
$ LHS
$ Ixx
CONM2   270001  3000            0.0     0.0     0.0     0.0
        1.05    0.0     0.0     0.0     0.0     0.0
CONM2   270002  1010            0.0     0.0     0.0     0.0
        1.05    0.0     0.0     0.0     0.0     0.0
CONM2   270003  999011          0.0     0.0     0.0     0.0
        2.10    0.0     0.0     0.0     0.0     0.0   
$ IYY  
CONM2   270011  3000            0.0     0.0     0.0     0.0
        0.0     0.0     1.05    0.0     0.0     0.0     
CONM2   270012  1010            0.0     0.0     0.0     0.0
        0.0     0.0     1.05    0.0     0.0     0.0     
CONM2   270013  999011          0.0     0.0     0.0     0.0
        0.0     0.0     2.10    0.0     0.0     0.0                                          
$ RHS 
CONM2   280001  3000            0.0     0.0     0.0     0.0
        1.05    0.0     0.0     0.0     0.0     0.0
CONM2   280002  2010            0.0     0.0     0.0     0.0
        1.05    0.0     0.0     0.0     0.0     0.0
CONM2   280003  999021          0.0     0.0     0.0     0.0
        2.10    0.0     0.0     0.0     0.0     0.0
$ IYY
CONM2   280011  3000            0.0     0.0     0.0     0.0
        0.0     0.0     1.05    0.0     0.0     0.0     
CONM2   280012  2010            0.0     0.0     0.0     0.0
        0.0     0.0     1.05    0.0     0.0     0.0     
CONM2   280013  999021          0.0     0.0     0.0     0.0
        0.0     0.0     2.10    0.0     0.0     0.0                               
$ ---------Carbon sandwich panel, effective material property values------
MAT1     903    6.660e+61.252e+6        .009392
$ density is from prediction
$MAT1     903    6.660e+61.252e+6        .052565
$=====================================================================
$                      INNER Rib - BAR   
$=====================================================================
CBAR    1031    301     1010    1011    0.      0.      1.
CBAR    1032    301     1010    1012    0.      0.      1.
CBAR    2031    301     2010    2011    0.      0.      1.
CBAR    2032    301     2010    2012    0.      0.      1.
$ bar properties
PBARL   301     905             BAR
$       DIM1    DIM2    NSM
        0.25    1.48
MAT1    905     2.01e+6         .25     .01265
$
$ ------------------body flaps ----------------------------
$ 10001 10011 10101 20001 20021 20201 points for spring connections
GRID    10001   101     1.63    -4.7648 0.
GRID    10011   101     0.01    -4.7648 0.
GRID    10101   101     -0.01   -4.7648 0.
GRID    20001   201     1.63    4.7648  0.
GRID    20021   201     0.01    4.7648  0.
GRID    20201   201     -0.01   4.7648  0.
$ $ CONM2 for servos 
$ Spring connections
CBUSH   11001   10000   10011   10101                            101
CBUSH   22001   10000   20021   20201                            201 
PBUSH   10000   K        1.0E6  1.0E6   1.0E6   1.0E6   1.0E6    1.0E6
$ body flaps
RBE2    70004   100001  123456  10101
RBE2    70104   10011   123456  10001
$RBE2    900001  1012    123456  100001
$ servos to main wing
RBE2    80004   200001  123456  20201
RBE2    80204   20021   123456  20001
$ RBE2    900002  2012    123456  200001
$ Fictitious support at the CG for decoupled rigid modes 
SUPORT,28888,123456
$========================= UPDATED CONM2 ================================
$ Servos
CONM2   100     100001  101     0.1235  0.0     0.0     0.0
CONM2   200     200001  201     0.1235  0.0     0.0     0.0  
$ fuselage lumped mass 
$ CONM2*               301            3002               0  1.05988121E+00*   (orginal Skoll)
$ CONM2*               301            3002               0  1.09126248E+00*   (fixed skoll) 
$ flight computer, battery and engine motor
CONM2   301     3002            1.2     0.0     0.0     0.0
CONM2   302     3004            2.0     0.0     0.0     0.0
        3.0     0.0     3.0     0.0     0.0     0.0
CONM2   303     3006            1.0     0.0     0.0     0.0
$ body flaps mass updated (Center of the body flap)
CONM2   401     10001   101     0.1060  -0.746  -1.4652 0.0
CONM2   501     20001   201     0.1060  -0.746  1.4652  0.0
$ accelerometers
CONM2   9001    9001            0.0062  0.00    0.00    0.0
CONM2   9002    9002            0.0062  0.00    0.00    0.0
$ CONM2*              9001            9001               0  6.20000018E-03*   
$ *         0.00000000E+00  0.00000000E+00  0.00000000E+00                *   
$ *         0.00000000E+00  0.00000000E+00  0.00000000E+00  0.00000000E+00*   
$ *         0.00000000E+00  0.00000000E+00    
$ CONM2*              9002            9002               0  6.20000018E-03*   
$ *         0.00000000E+00  0.00000000E+00  0.00000000E+00                *   
$ *         0.00000000E+00  0.00000000E+00  0.00000000E+00  0.00000000E+00*   
$ *         0.00000000E+00  0.00000000E+00    
$ ballast mass removed
$ CONM2*              9100            3001               0  2.63600007E-01*   
$ *         4.61999989E+00  0.00000000E+00  0.00000000E+00                *   
$ *         0.00000000E+00  0.00000000E+00  0.00000000E+00  0.00000000E+00*   
$ *         0.00000000E+00  0.00000000E+00    
$ Avionics battery 9200
CONM2   9200    13001           0.1720  0.0     0.0     0.0
$ avionics cover 9300
CONM2   9300    3002            0.1279  0.0     0.0     0.0
$ y-axis align the hinge line
$1------$2------$3------$4------$5------$6------$7------$8------$9------$0
$ --- Left body flap ---
CORD2R  101             13.64   -1.16   0.0     13.64    -1.16  1.0
        17.34   -2.75   0.0   
$ --- Right body flap ---
CORD2R  201             13.64    1.16   0.0     13.64    1.16   1.0
        17.34   2.75    0.0
$$$$$$$$$$$$$$$$$$$
$$$$$$$$$$ Modify body flap connection points $$$$$
$
$1------$1------$1------$1------$1------$1------$1------$1------
GRID     101001          8.66   -4.206140.0
GRID     202002          8.66   4.20614 0.0
$ Modified Aug 26
$1------$1------$1------$1------$1------$1------$1------$1------
RBE2    900001  101001  123456  100001
RBE2    900002  202002  123456  200001
ENDDATA 6741254d
$