$TITLE   = MSC.NASTRAN JOB CREATED ON 20-FEB-15 AT 15:37:03                    1
$SUBTITLE=DEFAULT                                                              2
$LABEL   =                                                                     3
$EIGENVECTOR                                                                   4
$REAL OUTPUT                                                                   5
$SUBCASE ID =           1                                                      6
$EIGENVALUE =  0.0000000E+00  MODE =     1                                     7
         1       G      5.293255E+00     -1.486284E-12      0.000000E+00       8
-CONT-                  0.000000E+00      0.000000E+00      5.924075E-13       9
         2       G      5.293255E+00      1.256562E-12      0.000000E+00      10
-CONT-                  0.000000E+00      0.000000E+00      5.924075E-13      11
         3       G      5.293255E+00      3.588197E-13      0.000000E+00      12
-CONT-                  0.000000E+00      0.000000E+00      9.528141E-13      13
         4       G      5.293255E+00      4.779877E-12      0.000000E+00      14
-CONT-                  0.000000E+00      0.000000E+00      9.528141E-13      15
         5       G      5.293255E+00      3.782055E-12      0.000000E+00      16
-CONT-                  0.000000E+00      0.000000E+00      1.193678E-12      17
         6       G      5.293255E+00      9.320722E-12      0.000000E+00      18
-CONT-                  0.000000E+00      0.000000E+00      1.193678E-12      19
         7       G      5.293255E+00      8.190224E-12      0.000000E+00      20
-CONT-                  0.000000E+00      0.000000E+00      1.312376E-12      21
         8       G      5.293255E+00      1.426652E-11      0.000000E+00      22
-CONT-                  0.000000E+00      0.000000E+00      1.312376E-12      23
         9       G      5.293255E+00      1.309257E-11      0.000000E+00      24
-CONT-                  0.000000E+00      0.000000E+00      1.347397E-12      25
        10       G      5.293255E+00      1.934450E-11      0.000000E+00      26
-CONT-                  0.000000E+00      0.000000E+00      1.347397E-12      27
        11       G      5.293255E+00      1.271300E-12      0.000000E+00      28
-CONT-                  0.000000E+00      0.000000E+00     -5.196768E-13      29
        12       G      5.293255E+00     -1.134803E-12      0.000000E+00      30
-CONT-                  0.000000E+00      0.000000E+00     -5.196768E-13      31
        13       G      5.293255E+00     -4.042159E-13      0.000000E+00      32
-CONT-                  0.000000E+00      0.000000E+00     -7.852732E-13      33
        14       G      5.293255E+00     -4.047884E-12      0.000000E+00      34
-CONT-                  0.000000E+00      0.000000E+00     -7.852732E-13      35
        15       G      5.293255E+00     -3.291334E-12      0.000000E+00      36
-CONT-                  0.000000E+00      0.000000E+00     -9.199781E-13      37
        16       G      5.293255E+00     -7.560032E-12      0.000000E+00      38
-CONT-                  0.000000E+00      0.000000E+00     -9.199781E-13      39
        17       G      5.293255E+00     -6.724417E-12      0.000000E+00      40
-CONT-                  0.000000E+00      0.000000E+00     -9.617209E-13      41
        18       G      5.293255E+00     -1.117718E-11      0.000000E+00      42
-CONT-                  0.000000E+00      0.000000E+00     -9.617209E-13      43
        19       G      5.293255E+00     -1.031802E-11      0.000000E+00      44
-CONT-                  0.000000E+00      0.000000E+00     -9.767433E-13      45
        20       G      5.293255E+00     -1.485011E-11      0.000000E+00      46
-CONT-                  0.000000E+00      0.000000E+00     -9.767433E-13      47
       101       G      5.293255E+00      4.188981E-13      0.000000E+00      48
-CONT-                  0.000000E+00      0.000000E+00      5.924075E-13      49
       102       G      5.293255E+00      3.429740E-12      0.000000E+00      50
-CONT-                  0.000000E+00      0.000000E+00      9.528141E-13      51
       103       G      5.293255E+00      7.626893E-12      0.000000E+00      52
-CONT-                  0.000000E+00      0.000000E+00      1.193678E-12      53
       104       G      5.293255E+00      1.241082E-11      0.000000E+00      54
-CONT-                  0.000000E+00      0.000000E+00      1.312376E-12      55
       105       G      5.293255E+00      1.742715E-11      0.000000E+00      56
-CONT-                  0.000000E+00      0.000000E+00      1.347397E-12      57
       201       G      5.293255E+00     -3.999803E-13      0.000000E+00      58
-CONT-                  0.000000E+00      0.000000E+00     -5.196768E-13      59
       202       G      5.293255E+00     -2.935151E-12      0.000000E+00      60
-CONT-                  0.000000E+00      0.000000E+00     -7.852732E-13      61
       203       G      5.293255E+00     -6.254584E-12      0.000000E+00      62
-CONT-                  0.000000E+00      0.000000E+00     -9.199781E-13      63
       204       G      5.293255E+00     -9.817311E-12      0.000000E+00      64
-CONT-                  0.000000E+00      0.000000E+00     -9.617209E-13      65
       205       G      5.293255E+00     -1.346020E-11      0.000000E+00      66
-CONT-                  0.000000E+00      0.000000E+00     -9.767433E-13      67
      1000       G      0.000000E+00      0.000000E+00      0.000000E+00      68
-CONT-                  0.000000E+00      0.000000E+00      0.000000E+00      69
      1010       G      5.293255E+00      3.836689E-14      0.000000E+00      70
-CONT-                  0.000000E+00      0.000000E+00      1.974202E-14      71
      1011       G      5.293255E+00     -5.656318E-15      0.000000E+00      72
-CONT-                  0.000000E+00      0.000000E+00      3.850335E-15      73
      1012       G      5.293255E+00      1.593679E-15      0.000000E+00      74
-CONT-                  0.000000E+00      0.000000E+00      8.466086E-16      75
      1013       G      5.293255E+00     -6.886031E-14      0.000000E+00      76
-CONT-                  0.000000E+00      0.000000E+00      1.974202E-14      77
      1020       G      5.293255E+00     -4.040227E-14      0.000000E+00      78
-CONT-                  0.000000E+00      0.000000E+00      5.167083E-13      79
      1030       G      5.293255E+00      2.191989E-12      0.000000E+00      80
-CONT-                  0.000000E+00      0.000000E+00      8.227372E-13      81
      1040       G      5.293255E+00      4.743820E-12      0.000000E+00      82
-CONT-                  0.000000E+00      0.000000E+00      1.051628E-12      83
      1050       G      5.293255E+00      8.216831E-12      0.000000E+00      84
-CONT-                  0.000000E+00      0.000000E+00      1.213592E-12      85
      1060       G      5.293255E+00      1.183037E-11      0.000000E+00      86
-CONT-                  0.000000E+00      0.000000E+00      1.303377E-12      87
      1070       G      5.293255E+00      1.550373E-11      0.000000E+00      88
-CONT-                  0.000000E+00      0.000000E+00      1.341429E-12      89
      1080       G      5.293255E+00      1.959675E-11      0.000000E+00      90
-CONT-                  0.000000E+00      0.000000E+00      1.347489E-12      91
      1090       G      5.293255E+00      2.109482E-11      0.000000E+00      92
-CONT-                  0.000000E+00      0.000000E+00      1.346668E-12      93
      1091       G      5.293255E+00      1.780423E-11      0.000000E+00      94
-CONT-                  0.000000E+00      0.000000E+00      1.346668E-12      95
      1092       G      5.293255E+00      2.957411E-11      0.000000E+00      96
-CONT-                  0.000000E+00      0.000000E+00      1.346668E-12      97
      2000       G      0.000000E+00      0.000000E+00      0.000000E+00      98
-CONT-                  0.000000E+00      0.000000E+00      0.000000E+00      99
      2010       G      5.293255E+00     -5.136319E-14      0.000000E+00     100
-CONT-                  0.000000E+00      0.000000E+00     -1.358986E-14     101
      2011       G      5.293255E+00     -2.096429E-14      0.000000E+00     102
-CONT-                  0.000000E+00      0.000000E+00      2.601334E-15     103
      2012       G      5.293255E+00     -1.346959E-15      0.000000E+00     104
-CONT-                  0.000000E+00      0.000000E+00      3.990658E-17     105
      2013       G      5.293255E+00      2.244902E-14      0.000000E+00     106
-CONT-                  0.000000E+00      0.000000E+00     -1.358986E-14     107
      2020       G      5.293255E+00      2.203760E-15      0.000000E+00     108
-CONT-                  0.000000E+00      0.000000E+00     -4.594840E-13     109
      2030       G      5.293255E+00     -1.912882E-12      0.000000E+00     110
-CONT-                  0.000000E+00      0.000000E+00     -6.933030E-13     111
      2040       G      5.293255E+00     -3.999310E-12      0.000000E+00     112
-CONT-                  0.000000E+00      0.000000E+00     -8.460236E-13     113
      2050       G      5.293255E+00     -6.705270E-12      0.000000E+00     114
-CONT-                  0.000000E+00      0.000000E+00     -9.280770E-13     115
      2060       G      5.293255E+00     -9.392977E-12      0.000000E+00     116
-CONT-                  0.000000E+00      0.000000E+00     -9.591500E-13     117
      2070       G      5.293255E+00     -1.206631E-11      0.000000E+00     118
-CONT-                  0.000000E+00      0.000000E+00     -9.736948E-13     119
      2080       G      5.293255E+00     -1.503446E-11      0.000000E+00     120
-CONT-                  0.000000E+00      0.000000E+00     -9.779737E-13     121
      2090       G      5.293255E+00     -1.612464E-11      0.000000E+00     122
-CONT-                  0.000000E+00      0.000000E+00     -9.788717E-13     123
      2091       G      5.293255E+00     -1.373276E-11      0.000000E+00     124
-CONT-                  0.000000E+00      0.000000E+00     -9.788717E-13     125
      2092       G      5.293255E+00     -2.228810E-11      0.000000E+00     126
-CONT-                  0.000000E+00      0.000000E+00     -9.788717E-13     127
      3000       G      5.293255E+00     -1.586707E-14      0.000000E+00     128
-CONT-                  0.000000E+00      0.000000E+00      3.232182E-15     129
      3001       G      5.293255E+00     -6.612750E-14      0.000000E+00     130
-CONT-                  0.000000E+00      0.000000E+00      3.232182E-15     131
      3002       G      5.293255E+00     -3.684393E-14      0.000000E+00     132
-CONT-                  0.000000E+00      0.000000E+00      3.232182E-15     133
      3004       G      5.293255E+00     -5.421359E-15      0.000000E+00     134
-CONT-                  0.000000E+00      0.000000E+00      2.231185E-15     135
      3005       G      5.293255E+00      7.186251E-17      0.000000E+00     136
-CONT-                  0.000000E+00      0.000000E+00      3.317288E-16     137
      3006       G      5.293255E+00      2.604519E-15      0.000000E+00     138
-CONT-                  0.000000E+00      0.000000E+00      3.122495E-16     139
      3007       G      5.293255E+00      2.988273E-15      0.000000E+00     140
-CONT-                  0.000000E+00      0.000000E+00      3.122495E-16     141
      3011       G      5.293255E+00      2.434904E-11      0.000000E+00     142
-CONT-                  0.000000E+00      0.000000E+00      1.346668E-12     143
      3012       G      5.293255E+00      2.957411E-11      0.000000E+00     144
-CONT-                  0.000000E+00      0.000000E+00      1.346668E-12     145
      3013       G      5.293255E+00      2.434904E-11      0.000000E+00     146
-CONT-                  0.000000E+00      0.000000E+00      1.346668E-12     147
      3014       G      5.293255E+00      2.957411E-11      0.000000E+00     148
-CONT-                  0.000000E+00      0.000000E+00      1.346668E-12     149
      4011       G      5.293255E+00     -1.849008E-11      0.000000E+00     150
-CONT-                  0.000000E+00      0.000000E+00     -9.788717E-13     151
      4012       G      5.293255E+00     -2.228810E-11      0.000000E+00     152
-CONT-                  0.000000E+00      0.000000E+00     -9.788717E-13     153
      4013       G      5.293255E+00     -1.849008E-11      0.000000E+00     154
-CONT-                  0.000000E+00      0.000000E+00     -9.788717E-13     155
      4014       G      5.293255E+00     -2.228810E-11      0.000000E+00     156
-CONT-                  0.000000E+00      0.000000E+00     -9.788717E-13     157
      5011       G      5.293255E+00      5.734546E-15      0.000000E+00     158
-CONT-                  0.000000E+00      0.000000E+00      7.461762E-16     159
      5012       G      5.293255E+00      2.066727E-15      0.000000E+00     160
-CONT-                  0.000000E+00      0.000000E+00      7.461762E-16     161
      5021       G      5.293255E+00     -1.141426E-16      0.000000E+00     162
-CONT-                  0.000000E+00      0.000000E+00      9.056404E-17     163
      5022       G      5.293255E+00     -5.593089E-16      0.000000E+00     164
-CONT-                  0.000000E+00      0.000000E+00      9.056404E-17     165
      6011       G      5.293255E+00      3.517779E-12      0.000000E+00     166
-CONT-                  0.000000E+00      0.000000E+00      8.227372E-13     167
      6012       G      5.293255E+00      8.066701E-12      0.000000E+00     168
-CONT-                  0.000000E+00      0.000000E+00      8.227372E-13     169
      6021       G      5.293255E+00     -3.030070E-12      0.000000E+00     170
-CONT-                  0.000000E+00      0.000000E+00     -6.933030E-13     171
      6022       G      5.293255E+00     -6.863349E-12      0.000000E+00     172
-CONT-                  0.000000E+00      0.000000E+00     -6.933030E-13     173
      7011       G      5.293255E+00      1.017380E-11      0.000000E+00     174
-CONT-                  0.000000E+00      0.000000E+00      1.213590E-12     175
      7012       G      5.293255E+00      1.688375E-11      0.000000E+00     176
-CONT-                  0.000000E+00      0.000000E+00      1.213590E-12     177
      7021       G      5.293255E+00     -8.201833E-12      0.000000E+00     178
-CONT-                  0.000000E+00      0.000000E+00     -9.280745E-13     179
      7022       G      5.293255E+00     -1.333317E-11      0.000000E+00     180
-CONT-                  0.000000E+00      0.000000E+00     -9.280745E-13     181
      8011       G      5.293255E+00      1.766822E-11      0.000000E+00     182
-CONT-                  0.000000E+00      0.000000E+00      1.341429E-12     183
      8012       G      5.293255E+00      2.508499E-11      0.000000E+00     184
-CONT-                  0.000000E+00      0.000000E+00      1.341429E-12     185
      8021       G      5.293255E+00     -1.363745E-11      0.000000E+00     186
-CONT-                  0.000000E+00      0.000000E+00     -9.736948E-13     187
      8022       G      5.293255E+00     -1.902102E-11      0.000000E+00     188
-CONT-                  0.000000E+00      0.000000E+00     -9.736948E-13     189
      9001       G      5.293255E+00     -5.581684E-14      0.000000E+00     190
-CONT-                  0.000000E+00      0.000000E+00      3.232182E-15     191
      9002       G      5.293255E+00     -2.178749E-16      0.000000E+00     192
-CONT-                  0.000000E+00      0.000000E+00      4.799128E-16     193
      9003       G      5.293255E+00      1.311937E-11      0.000000E+00     194
-CONT-                  0.000000E+00      0.000000E+00      1.347489E-12     195
      9004       G      5.293255E+00      2.190500E-11      0.000000E+00     196
-CONT-                  0.000000E+00      0.000000E+00      1.347489E-12     197
      9005       G      5.293255E+00     -1.033334E-11      0.000000E+00     198
-CONT-                  0.000000E+00      0.000000E+00     -9.779737E-13     199
      9006       G      5.293255E+00     -1.670973E-11      0.000000E+00     200
-CONT-                  0.000000E+00      0.000000E+00     -9.779737E-13     201
     10001       G      5.293255E+00      4.330817E-15      0.000000E+00     202
-CONT-                  0.000000E+00      0.000000E+00      7.461762E-16     203
     10002       G      5.293255E+00      5.298613E-12      0.000000E+00     204
-CONT-                  0.000000E+00      0.000000E+00      8.227372E-13     205
     10003       G      5.293255E+00      1.280064E-11      0.000000E+00     206
-CONT-                  0.000000E+00      0.000000E+00      1.213590E-12     207
     10004       G      5.293255E+00      2.057177E-11      0.000000E+00     208
-CONT-                  0.000000E+00      0.000000E+00      1.341429E-12     209
     10011       G      5.293255E+00      3.220216E-15      0.000000E+00     210
-CONT-                  0.000000E+00      0.000000E+00      7.461762E-16     211
     10012       G      5.293255E+00      4.520610E-12      0.000000E+00     212
-CONT-                  0.000000E+00      0.000000E+00      8.227372E-13     213
     10013       G      5.293255E+00      1.165304E-11      0.000000E+00     214
-CONT-                  0.000000E+00      0.000000E+00      1.213590E-12     215
     10014       G      5.293255E+00      1.930328E-11      0.000000E+00     216
-CONT-                  0.000000E+00      0.000000E+00      1.341429E-12     217
     10101       G      5.293255E+00      3.206527E-15      0.000000E+00     218
-CONT-                  0.000000E+00      0.000000E+00      7.437691E-16     219
     10102       G      5.293255E+00      4.505354E-12      0.000000E+00     220
-CONT-                  0.000000E+00      0.000000E+00      8.227372E-13     221
     10103       G      5.293255E+00      1.163054E-11      0.000000E+00     222
-CONT-                  0.000000E+00      0.000000E+00      1.213592E-12     223
     10104       G      5.293255E+00      1.927841E-11      0.000000E+00     224
-CONT-                  0.000000E+00      0.000000E+00      1.341429E-12     225
     13001       G      5.293255E+00     -5.119482E-14      0.000000E+00     226
-CONT-                  0.000000E+00      0.000000E+00      3.232182E-15     227
     13002       G      5.293255E+00     -2.767804E-15      0.000000E+00     228
-CONT-                  0.000000E+00      0.000000E+00      1.680470E-15     229
     18888       G      5.293255E+00      0.000000E+00      0.000000E+00     230
-CONT-                  0.000000E+00      0.000000E+00      2.038276E-16     231
     20001       G      5.293255E+00     -2.845144E-16      0.000000E+00     232
-CONT-                  0.000000E+00      0.000000E+00      9.056404E-17     233
     20002       G      5.293255E+00     -4.530740E-12      0.000000E+00     234
-CONT-                  0.000000E+00      0.000000E+00     -6.933030E-13     235
     20003       G      5.293255E+00     -1.021067E-11      0.000000E+00     236
-CONT-                  0.000000E+00      0.000000E+00     -9.280745E-13     237
     20004       G      5.293255E+00     -1.574503E-11      0.000000E+00     238
-CONT-                  0.000000E+00      0.000000E+00     -9.736948E-13     239
     20021       G      5.293255E+00     -4.193090E-16      0.000000E+00     240
-CONT-                  0.000000E+00      0.000000E+00      9.056404E-17     241
     20022       G      5.293255E+00     -3.875134E-12      0.000000E+00     242
-CONT-                  0.000000E+00      0.000000E+00     -6.933030E-13     243
     20023       G      5.293255E+00     -9.333059E-12      0.000000E+00     244
-CONT-                  0.000000E+00      0.000000E+00     -9.280745E-13     245
     20024       G      5.293255E+00     -1.482428E-11      0.000000E+00     246
-CONT-                  0.000000E+00      0.000000E+00     -9.736948E-13     247
     20201       G      5.293255E+00     -4.209953E-16      0.000000E+00     248
-CONT-                  0.000000E+00      0.000000E+00      9.297114E-17     249
     20202       G      5.293255E+00     -3.862279E-12      0.000000E+00     250
-CONT-                  0.000000E+00      0.000000E+00     -6.933030E-13     251
     20203       G      5.293255E+00     -9.315851E-12      0.000000E+00     252
-CONT-                  0.000000E+00      0.000000E+00     -9.280770E-13     253
     20204       G      5.293255E+00     -1.480623E-11      0.000000E+00     254
-CONT-                  0.000000E+00      0.000000E+00     -9.736948E-13     255
     28888       G      5.293255E+00     -5.991554E-15      0.000000E+00     256
-CONT-                  0.000000E+00      0.000000E+00      2.322762E-15     257
    100001       G      5.293255E+00      2.031682E-15      0.000000E+00     258
-CONT-                  0.000000E+00      0.000000E+00      7.437691E-16     259
    101001       G      5.293255E+00      9.085907E-16      0.000000E+00     260
-CONT-                  0.000000E+00      0.000000E+00      7.437691E-16     261
    200001       G      5.293255E+00     -5.678509E-16      0.000000E+00     262
-CONT-                  0.000000E+00      0.000000E+00      9.297114E-17     263
    202002       G      5.293255E+00     -7.082373E-16      0.000000E+00     264
-CONT-                  0.000000E+00      0.000000E+00      9.297114E-17     265
    888011       G      0.000000E+00      0.000000E+00      0.000000E+00     266
-CONT-                  0.000000E+00      0.000000E+00      0.000000E+00     267
    888012       G      0.000000E+00      0.000000E+00      0.000000E+00     268
-CONT-                  0.000000E+00      0.000000E+00      0.000000E+00     269
    888013       G      0.000000E+00      0.000000E+00      0.000000E+00     270
-CONT-                  0.000000E+00      0.000000E+00      0.000000E+00     271
    888014       G      0.000000E+00      0.000000E+00      0.000000E+00     272
-CONT-                  0.000000E+00      0.000000E+00      0.000000E+00     273
    888015       G      0.000000E+00      0.000000E+00      0.000000E+00     274
-CONT-                  0.000000E+00      0.000000E+00      0.000000E+00     275
    888016       G      0.000000E+00      0.000000E+00      0.000000E+00     276
-CONT-                  0.000000E+00      0.000000E+00      0.000000E+00     277
    888017       G      0.000000E+00      0.000000E+00      0.000000E+00     278
-CONT-                  0.000000E+00      0.000000E+00      0.000000E+00     279
    888021       G      0.000000E+00      0.000000E+00      0.000000E+00     280
-CONT-                  0.000000E+00      0.000000E+00      0.000000E+00     281
    888022       G      0.000000E+00      0.000000E+00      0.000000E+00     282
-CONT-                  0.000000E+00      0.000000E+00      0.000000E+00     283
    888023       G      0.000000E+00      0.000000E+00      0.000000E+00     284
-CONT-                  0.000000E+00      0.000000E+00      0.000000E+00     285
    888024       G      0.000000E+00      0.000000E+00      0.000000E+00     286
-CONT-                  0.000000E+00      0.000000E+00      0.000000E+00     287
    888025       G      0.000000E+00      0.000000E+00      0.000000E+00     288
-CONT-                  0.000000E+00      0.000000E+00      0.000000E+00     289
    888026       G      0.000000E+00      0.000000E+00      0.000000E+00     290
-CONT-                  0.000000E+00      0.000000E+00      0.000000E+00     291
    888027       G      0.000000E+00      0.000000E+00      0.000000E+00     292
-CONT-                  0.000000E+00      0.000000E+00      0.000000E+00     293
    999011       G      5.293255E+00      5.172820E-15      0.000000E+00     294
-CONT-                  0.000000E+00      0.000000E+00      1.150109E-14     295
    999012       G      5.293255E+00     -1.778716E-13      0.000000E+00     296
-CONT-                  0.000000E+00      0.000000E+00      2.688177E-13     297
    999013       G      5.293255E+00      9.548924E-13      0.000000E+00     298
-CONT-                  0.000000E+00      0.000000E+00      6.700902E-13     299
    999014       G      5.293255E+00      3.387757E-12      0.000000E+00     300
-CONT-                  0.000000E+00      0.000000E+00      9.492066E-13     301
    999015       G      5.293255E+00      6.560764E-12      0.000000E+00     302
-CONT-                  0.000000E+00      0.000000E+00      1.151575E-12     303
    999016       G      5.293255E+00      9.995763E-12      0.000000E+00     304
-CONT-                  0.000000E+00      0.000000E+00      1.265270E-12     305
    999017       G      5.293255E+00      1.365560E-11      0.000000E+00     306
-CONT-                  0.000000E+00      0.000000E+00      1.327986E-12     307
    999018       G      5.293255E+00      1.852484E-11      0.000000E+00     308
-CONT-                  0.000000E+00      0.000000E+00      1.347673E-12     309
    999021       G      5.293255E+00     -2.742074E-14      0.000000E+00     310
-CONT-                  0.000000E+00      0.000000E+00     -5.195260E-15     311
    999022       G      5.293255E+00      1.401901E-13      0.000000E+00     312
-CONT-                  0.000000E+00      0.000000E+00     -2.419170E-13     313
    999023       G      5.293255E+00     -8.629558E-13      0.000000E+00     314
-CONT-                  0.000000E+00      0.000000E+00     -5.799195E-13     315
    999024       G      5.293255E+00     -2.900573E-12      0.000000E+00     316
-CONT-                  0.000000E+00      0.000000E+00     -7.826847E-13     317
    999025       G      5.293255E+00     -5.431607E-12      0.000000E+00     318
-CONT-                  0.000000E+00      0.000000E+00     -9.000613E-13     319
    999026       G      5.293255E+00     -8.040619E-12      0.000000E+00     320
-CONT-                  0.000000E+00      0.000000E+00     -9.469026E-13     321
    999027       G      5.293255E+00     -1.072438E-11      0.000000E+00     322
-CONT-                  0.000000E+00      0.000000E+00     -9.680949E-13     323
    999028       G      5.293255E+00     -1.425605E-11      0.000000E+00     324
-CONT-                  0.000000E+00      0.000000E+00     -9.773310E-13     325
$TITLE   = MSC.NASTRAN JOB CREATED ON 20-FEB-15 AT 15:37:03                  326
$SUBTITLE=DEFAULT                                                            327
$LABEL   =                                                                   328
$EIGENVECTOR                                                                 329
$REAL OUTPUT                                                                 330
$SUBCASE ID =           1                                                    331
$EIGENVALUE =  0.0000000E+00  MODE =     2                                   332
         1       G     -1.520165E-11      5.293255E+00      0.000000E+00     333
-CONT-                  0.000000E+00      0.000000E+00     -5.449348E-13     334
         2       G     -1.418262E-11      5.293255E+00      0.000000E+00     335
-CONT-                  0.000000E+00      0.000000E+00     -5.449348E-13     336
         3       G     -2.067387E-11      5.293255E+00      0.000000E+00     337
-CONT-                  0.000000E+00      0.000000E+00     -5.823620E-13     338
         4       G     -1.958485E-11      5.293255E+00      0.000000E+00     339
-CONT-                  0.000000E+00      0.000000E+00     -5.823620E-13     340
         5       G     -2.649527E-11      5.293255E+00      0.000000E+00     341
-CONT-                  0.000000E+00      0.000000E+00     -6.540301E-13     342
         6       G     -2.526569E-11      5.293255E+00      0.000000E+00     343
-CONT-                  0.000000E+00      0.000000E+00     -6.540301E-13     344
         7       G     -3.277197E-11      5.293255E+00      0.000000E+00     345
-CONT-                  0.000000E+00      0.000000E+00     -6.895198E-13     346
         8       G     -3.147567E-11      5.293255E+00      0.000000E+00     347
-CONT-                  0.000000E+00      0.000000E+00     -6.895198E-13     348
         9       G     -3.923712E-11      5.293255E+00      0.000000E+00     349
-CONT-                  0.000000E+00      0.000000E+00     -6.992164E-13     350
        10       G     -3.792959E-11      5.293255E+00      0.000000E+00     351
-CONT-                  0.000000E+00      0.000000E+00     -6.992164E-13     352
        11       G      5.760029E-12      5.293255E+00      0.000000E+00     353
-CONT-                  0.000000E+00      0.000000E+00     -2.114683E-12     354
        12       G      1.805571E-12      5.293255E+00      0.000000E+00     355
-CONT-                  0.000000E+00      0.000000E+00     -2.114683E-12     356
        13       G      3.020098E-11      5.293255E+00      0.000000E+00     357
-CONT-                  0.000000E+00      0.000000E+00     -2.830344E-12     358
        14       G      2.490824E-11      5.293255E+00      0.000000E+00     359
-CONT-                  0.000000E+00      0.000000E+00     -2.830344E-12     360
        15       G      5.751168E-11      5.293255E+00      0.000000E+00     361
-CONT-                  0.000000E+00      0.000000E+00     -3.016181E-12     362
        16       G      5.184126E-11      5.293255E+00      0.000000E+00     363
-CONT-                  0.000000E+00      0.000000E+00     -3.016181E-12     364
        17       G      8.603180E-11      5.293255E+00      0.000000E+00     365
-CONT-                  0.000000E+00      0.000000E+00     -3.106659E-12     366
        18       G      8.019128E-11      5.293255E+00      0.000000E+00     367
-CONT-                  0.000000E+00      0.000000E+00     -3.106659E-12     368
        19       G      1.149936E-10      5.293255E+00      0.000000E+00     369
-CONT-                  0.000000E+00      0.000000E+00     -3.132030E-12     370
        20       G      1.091367E-10      5.293255E+00      0.000000E+00     371
-CONT-                  0.000000E+00      0.000000E+00     -3.132030E-12     372
       101       G     -1.449378E-11      5.293255E+00      0.000000E+00     373
-CONT-                  0.000000E+00      0.000000E+00     -5.449348E-13     374
       102       G     -1.991738E-11      5.293255E+00      0.000000E+00     375
-CONT-                  0.000000E+00      0.000000E+00     -5.823620E-13     376
       103       G     -2.564176E-11      5.293255E+00      0.000000E+00     377
-CONT-                  0.000000E+00      0.000000E+00     -6.540301E-13     378
       104       G     -3.187146E-11      5.293255E+00      0.000000E+00     379
-CONT-                  0.000000E+00      0.000000E+00     -6.895198E-13     380
       105       G     -3.833024E-11      5.293255E+00      0.000000E+00     381
-CONT-                  0.000000E+00      0.000000E+00     -6.992164E-13     382
       201       G      3.013055E-12      5.293255E+00      0.000000E+00     383
-CONT-                  0.000000E+00      0.000000E+00     -2.114683E-12     384
       202       G      2.652437E-11      5.293255E+00      0.000000E+00     385
-CONT-                  0.000000E+00      0.000000E+00     -2.830344E-12     386
       203       G      5.357556E-11      5.293255E+00      0.000000E+00     387
-CONT-                  0.000000E+00      0.000000E+00     -3.016181E-12     388
       204       G      8.197450E-11      5.293255E+00      0.000000E+00     389
-CONT-                  0.000000E+00      0.000000E+00     -3.106659E-12     390
       205       G      1.109313E-10      5.293255E+00      0.000000E+00     391
-CONT-                  0.000000E+00      0.000000E+00     -3.132030E-12     392
      1000       G      0.000000E+00      0.000000E+00      0.000000E+00     393
-CONT-                  0.000000E+00      0.000000E+00      0.000000E+00     394
      1010       G     -1.105248E-11      5.293255E+00      0.000000E+00     395
-CONT-                  0.000000E+00      0.000000E+00     -4.729132E-14     396
      1011       G     -1.105088E-11      5.293255E+00      0.000000E+00     397
-CONT-                  0.000000E+00      0.000000E+00     -3.726919E-14     398
      1012       G     -1.103340E-11      5.293255E+00      0.000000E+00     399
-CONT-                  0.000000E+00      0.000000E+00     -1.109265E-14     400
      1013       G     -1.105248E-11      5.293255E+00      0.000000E+00     401
-CONT-                  0.000000E+00      0.000000E+00     -4.729132E-14     402
      1020       G     -1.347182E-11      5.293255E+00      0.000000E+00     403
-CONT-                  0.000000E+00      0.000000E+00     -5.147249E-13     404
      1030       G     -1.792518E-11      5.293255E+00      0.000000E+00     405
-CONT-                  0.000000E+00      0.000000E+00     -5.883672E-13     406
      1040       G     -2.176161E-11      5.293255E+00      0.000000E+00     407
-CONT-                  0.000000E+00      0.000000E+00     -6.102887E-13     408
      1050       G     -2.642010E-11      5.293255E+00      0.000000E+00     409
-CONT-                  0.000000E+00      0.000000E+00     -6.606127E-13     410
      1060       G     -3.112189E-11      5.293255E+00      0.000000E+00     411
-CONT-                  0.000000E+00      0.000000E+00     -6.870223E-13     412
      1070       G     -3.584028E-11      5.293255E+00      0.000000E+00     413
-CONT-                  0.000000E+00      0.000000E+00     -6.979309E-13     414
      1080       G     -4.110227E-11      5.293255E+00      0.000000E+00     415
-CONT-                  0.000000E+00      0.000000E+00     -6.982981E-13     416
      1090       G     -4.293487E-11      5.293255E+00      0.000000E+00     417
-CONT-                  0.000000E+00      0.000000E+00     -6.981520E-13     418
      1091       G     -4.293487E-11      5.293255E+00      0.000000E+00     419
-CONT-                  0.000000E+00      0.000000E+00     -6.981520E-13     420
      1092       G     -4.293487E-11      5.293255E+00      0.000000E+00     421
-CONT-                  0.000000E+00      0.000000E+00     -6.981520E-13     422
      2000       G      0.000000E+00      0.000000E+00      0.000000E+00     423
-CONT-                  0.000000E+00      0.000000E+00      0.000000E+00     424
      2010       G     -9.931680E-12      5.293255E+00      0.000000E+00     425
-CONT-                  0.000000E+00      0.000000E+00     -1.766681E-13     426
      2011       G     -9.955877E-12      5.293255E+00      0.000000E+00     427
-CONT-                  0.000000E+00      0.000000E+00     -4.198764E-14     428
      2012       G     -9.989487E-12      5.293255E+00      0.000000E+00     429
-CONT-                  0.000000E+00      0.000000E+00     -1.374372E-14     430
      2013       G     -9.931680E-12      5.293255E+00      0.000000E+00     431
-CONT-                  0.000000E+00      0.000000E+00     -1.766681E-13     432
      2020       G     -6.477017E-13      5.293255E+00      0.000000E+00     433
-CONT-                  0.000000E+00      0.000000E+00     -1.830370E-12     434
      2030       G      1.727857E-11      5.293255E+00      0.000000E+00     435
-CONT-                  0.000000E+00      0.000000E+00     -2.694464E-12     436
      2040       G      3.541933E-11      5.293255E+00      0.000000E+00     437
-CONT-                  0.000000E+00      0.000000E+00     -2.902517E-12     438
      2050       G      5.716294E-11      5.293255E+00      0.000000E+00     439
-CONT-                  0.000000E+00      0.000000E+00     -3.034982E-12     440
      2060       G      7.859364E-11      5.293255E+00      0.000000E+00     441
-CONT-                  0.000000E+00      0.000000E+00     -3.101609E-12     442
      2070       G      9.978676E-11      5.293255E+00      0.000000E+00     443
-CONT-                  0.000000E+00      0.000000E+00     -3.125593E-12     444
      2080       G      1.233529E-10      5.293255E+00      0.000000E+00     445
-CONT-                  0.000000E+00      0.000000E+00     -3.136520E-12     446
      2090       G      1.315860E-10      5.293255E+00      0.000000E+00     447
-CONT-                  0.000000E+00      0.000000E+00     -3.138215E-12     448
      2091       G      1.315860E-10      5.293255E+00      0.000000E+00     449
-CONT-                  0.000000E+00      0.000000E+00     -3.138215E-12     450
      2092       G      1.315860E-10      5.293255E+00      0.000000E+00     451
-CONT-                  0.000000E+00      0.000000E+00     -3.138215E-12     452
      3000       G     -1.073578E-11      5.293255E+00      0.000000E+00     453
-CONT-                  0.000000E+00      0.000000E+00     -3.694972E-14     454
      3001       G     -1.073578E-11      5.293255E+00      0.000000E+00     455
-CONT-                  0.000000E+00      0.000000E+00     -7.416290E-14     456
      3002       G     -1.073578E-11      5.293255E+00      0.000000E+00     457
-CONT-                  0.000000E+00      0.000000E+00     -6.696535E-14     458
      3004       G     -1.073571E-11      5.293255E+00      0.000000E+00     459
-CONT-                  0.000000E+00      0.000000E+00      2.436574E-13     460
      3005       G     -1.073563E-11      5.293255E+00      0.000000E+00     461
-CONT-                  0.000000E+00      0.000000E+00     -7.919983E-15     462
      3006       G     -1.073563E-11      5.293255E+00      0.000000E+00     463
-CONT-                  0.000000E+00      0.000000E+00     -2.055251E-14     464
      3007       G     -1.073563E-11      5.293255E+00      0.000000E+00     465
-CONT-                  0.000000E+00      0.000000E+00     -2.042810E-14     466
      3011       G     -4.293487E-11      5.293255E+00      0.000000E+00     467
-CONT-                  0.000000E+00      0.000000E+00     -6.981520E-13     468
      3012       G     -4.293487E-11      5.293255E+00      0.000000E+00     469
-CONT-                  0.000000E+00      0.000000E+00     -6.981520E-13     470
      3013       G     -4.293487E-11      5.293255E+00      0.000000E+00     471
-CONT-                  0.000000E+00      0.000000E+00     -6.981520E-13     472
      3014       G     -4.293487E-11      5.293255E+00      0.000000E+00     473
-CONT-                  0.000000E+00      0.000000E+00     -6.981520E-13     474
      4011       G      1.315859E-10      5.293255E+00      0.000000E+00     475
-CONT-                  0.000000E+00      0.000000E+00     -3.138215E-12     476
      4012       G      1.315859E-10      5.293255E+00      0.000000E+00     477
-CONT-                  0.000000E+00      0.000000E+00     -3.138215E-12     478
      4013       G      1.315859E-10      5.293255E+00      0.000000E+00     479
-CONT-                  0.000000E+00      0.000000E+00     -3.138215E-12     480
      4014       G      1.315859E-10      5.293255E+00      0.000000E+00     481
-CONT-                  0.000000E+00      0.000000E+00     -3.138215E-12     482
      5011       G     -1.087200E-11      5.293255E+00      0.000000E+00     483
-CONT-                  0.000000E+00      0.000000E+00     -1.109997E-14     484
      5012       G     -1.099896E-11      5.293255E+00      0.000000E+00     485
-CONT-                  0.000000E+00      0.000000E+00     -1.109997E-14     486
      5021       G     -1.036039E-11      5.293255E+00      0.000000E+00     487
-CONT-                  0.000000E+00      0.000000E+00     -1.327747E-14     488
      5022       G     -1.020851E-11      5.293255E+00      0.000000E+00     489
-CONT-                  0.000000E+00      0.000000E+00     -1.327747E-14     490
      6011       G     -1.387716E-11      5.293255E+00      0.000000E+00     491
-CONT-                  0.000000E+00      0.000000E+00     -5.883672E-13     492
      6012       G     -2.192280E-11      5.293255E+00      0.000000E+00     493
-CONT-                  0.000000E+00      0.000000E+00     -5.883672E-13     494
      6021       G     -1.259600E-12      5.293255E+00      0.000000E+00     495
-CONT-                  0.000000E+00      0.000000E+00     -2.694464E-12     496
      6022       G      3.558591E-11      5.293255E+00      0.000000E+00     497
-CONT-                  0.000000E+00      0.000000E+00     -2.694464E-12     498
      7011       G     -2.187473E-11      5.293255E+00      0.000000E+00     499
-CONT-                  0.000000E+00      0.000000E+00     -6.606127E-13     500
      7012       G     -3.090829E-11      5.293255E+00      0.000000E+00     501
-CONT-                  0.000000E+00      0.000000E+00     -6.606127E-13     502
      7021       G      3.628060E-11      5.293255E+00      0.000000E+00     503
-CONT-                  0.000000E+00      0.000000E+00     -3.034982E-12     504
      7022       G      7.778252E-11      5.293255E+00      0.000000E+00     505
-CONT-                  0.000000E+00      0.000000E+00     -3.034982E-12     506
      8011       G     -3.103781E-11      5.293255E+00      0.000000E+00     507
-CONT-                  0.000000E+00      0.000000E+00     -6.979309E-13     508
      8012       G     -4.058169E-11      5.293255E+00      0.000000E+00     509
-CONT-                  0.000000E+00      0.000000E+00     -6.979309E-13     510
      8021       G      7.827953E-11      5.293255E+00      0.000000E+00     511
-CONT-                  0.000000E+00      0.000000E+00     -3.125593E-12     512
      8022       G      1.210205E-10      5.293255E+00      0.000000E+00     513
-CONT-                  0.000000E+00      0.000000E+00     -3.125593E-12     514
      9001       G     -1.073578E-11      5.293255E+00      0.000000E+00     515
-CONT-                  0.000000E+00      0.000000E+00     -7.460699E-14     516
      9002       G     -1.073565E-11      5.293255E+00      0.000000E+00     517
-CONT-                  0.000000E+00      0.000000E+00      1.262205E-13     518
      9003       G     -4.082575E-11      5.293255E+00      0.000000E+00     519
-CONT-                  0.000000E+00      0.000000E+00     -6.982981E-13     520
      9004       G     -4.082575E-11      5.293255E+00      0.000000E+00     521
-CONT-                  0.000000E+00      0.000000E+00     -6.982981E-13     522
      9005       G      1.221111E-10      5.293255E+00      0.000000E+00     523
-CONT-                  0.000000E+00      0.000000E+00     -3.136520E-12     524
      9006       G      1.221111E-10      5.293255E+00      0.000000E+00     525
-CONT-                  0.000000E+00      0.000000E+00     -3.136520E-12     526
     10001       G     -1.092059E-11      5.293255E+00      0.000000E+00     527
-CONT-                  0.000000E+00      0.000000E+00     -1.109997E-14     528
     10002       G     -1.702691E-11      5.293255E+00      0.000000E+00     529
-CONT-                  0.000000E+00      0.000000E+00     -5.883672E-13     530
     10003       G     -2.541123E-11      5.293255E+00      0.000000E+00     531
-CONT-                  0.000000E+00      0.000000E+00     -6.606127E-13     532
     10004       G     -3.477410E-11      5.293255E+00      0.000000E+00     533
-CONT-                  0.000000E+00      0.000000E+00     -6.979309E-13     534
     10011       G     -1.091349E-11      5.293255E+00      0.000000E+00     535
-CONT-                  0.000000E+00      0.000000E+00     -1.109997E-14     536
     10012       G     -1.725186E-11      5.293255E+00      0.000000E+00     537
-CONT-                  0.000000E+00      0.000000E+00     -5.883672E-13     538
     10013       G     -2.566381E-11      5.293255E+00      0.000000E+00     539
-CONT-                  0.000000E+00      0.000000E+00     -6.606127E-13     540
     10014       G     -3.504095E-11      5.293255E+00      0.000000E+00     541
-CONT-                  0.000000E+00      0.000000E+00     -6.979309E-13     542
     10101       G     -1.091340E-11      5.293255E+00      0.000000E+00     543
-CONT-                  0.000000E+00      0.000000E+00     -1.109997E-14     544
     10102       G     -1.725628E-11      5.293255E+00      0.000000E+00     545
-CONT-                  0.000000E+00      0.000000E+00     -5.883672E-13     546
     10103       G     -2.566876E-11      5.293255E+00      0.000000E+00     547
-CONT-                  0.000000E+00      0.000000E+00     -6.606127E-13     548
     10104       G     -3.504618E-11      5.293255E+00      0.000000E+00     549
-CONT-                  0.000000E+00      0.000000E+00     -6.979309E-13     550
     13001       G     -1.073578E-11      5.293255E+00      0.000000E+00     551
-CONT-                  0.000000E+00      0.000000E+00     -7.505108E-14     552
     13002       G     -1.073569E-11      5.293255E+00      0.000000E+00     553
-CONT-                  0.000000E+00      0.000000E+00      2.844211E-13     554
     18888       G     -1.073563E-11      5.293255E+00      0.000000E+00     555
-CONT-                  0.000000E+00      0.000000E+00      2.317842E-14     556
     20001       G     -1.030226E-11      5.293255E+00      0.000000E+00     557
-CONT-                  0.000000E+00      0.000000E+00     -1.327747E-14     558
     20002       G      1.316485E-11      5.293255E+00      0.000000E+00     559
-CONT-                  0.000000E+00      0.000000E+00     -2.694464E-12     560
     20003       G      5.252797E-11      5.293255E+00      0.000000E+00     561
-CONT-                  0.000000E+00      0.000000E+00     -3.034982E-12     562
     20004       G      9.501198E-11      5.293255E+00      0.000000E+00     563
-CONT-                  0.000000E+00      0.000000E+00     -3.125593E-12     564
     20021       G     -1.031075E-11      5.293255E+00      0.000000E+00     565
-CONT-                  0.000000E+00      0.000000E+00     -1.327747E-14     566
     20022       G      1.419507E-11      5.293255E+00      0.000000E+00     567
-CONT-                  0.000000E+00      0.000000E+00     -2.694464E-12     568
     20023       G      5.368838E-11      5.293255E+00      0.000000E+00     569
-CONT-                  0.000000E+00      0.000000E+00     -3.034982E-12     570
     20024       G      9.620704E-11      5.293255E+00      0.000000E+00     571
-CONT-                  0.000000E+00      0.000000E+00     -3.125593E-12     572
     20201       G     -1.031086E-11      5.293255E+00      0.000000E+00     573
-CONT-                  0.000000E+00      0.000000E+00     -1.327747E-14     574
     20202       G      1.421527E-11      5.293255E+00      0.000000E+00     575
-CONT-                  0.000000E+00      0.000000E+00     -2.694464E-12     576
     20203       G      5.371113E-11      5.293255E+00      0.000000E+00     577
-CONT-                  0.000000E+00      0.000000E+00     -3.034982E-12     578
     20204       G      9.623047E-11      5.293255E+00      0.000000E+00     579
-CONT-                  0.000000E+00      0.000000E+00     -3.125593E-12     580
     28888       G     -1.073572E-11      5.293255E+00      0.000000E+00     581
-CONT-                  0.000000E+00      0.000000E+00      2.255973E-13     582
    100001       G     -1.090587E-11      5.293255E+00      0.000000E+00     583
-CONT-                  0.000000E+00      0.000000E+00     -1.109997E-14     584
    101001       G     -1.089866E-11      5.293255E+00      0.000000E+00     585
-CONT-                  0.000000E+00      0.000000E+00     -1.109997E-14     586
    200001       G     -1.031987E-11      5.293255E+00      0.000000E+00     587
-CONT-                  0.000000E+00      0.000000E+00     -1.327747E-14     588
    202002       G     -1.032848E-11      5.293255E+00      0.000000E+00     589
-CONT-                  0.000000E+00      0.000000E+00     -1.327747E-14     590
    888011       G      0.000000E+00      0.000000E+00      0.000000E+00     591
-CONT-                  0.000000E+00      0.000000E+00      0.000000E+00     592
    888012       G      0.000000E+00      0.000000E+00      0.000000E+00     593
-CONT-                  0.000000E+00      0.000000E+00      0.000000E+00     594
    888013       G      0.000000E+00      0.000000E+00      0.000000E+00     595
-CONT-                  0.000000E+00      0.000000E+00      0.000000E+00     596
    888014       G      0.000000E+00      0.000000E+00      0.000000E+00     597
-CONT-                  0.000000E+00      0.000000E+00      0.000000E+00     598
    888015       G      0.000000E+00      0.000000E+00      0.000000E+00     599
-CONT-                  0.000000E+00      0.000000E+00      0.000000E+00     600
    888016       G      0.000000E+00      0.000000E+00      0.000000E+00     601
-CONT-                  0.000000E+00      0.000000E+00      0.000000E+00     602
    888017       G      0.000000E+00      0.000000E+00      0.000000E+00     603
-CONT-                  0.000000E+00      0.000000E+00      0.000000E+00     604
    888021       G      0.000000E+00      0.000000E+00      0.000000E+00     605
-CONT-                  0.000000E+00      0.000000E+00      0.000000E+00     606
    888022       G      0.000000E+00      0.000000E+00      0.000000E+00     607
-CONT-                  0.000000E+00      0.000000E+00      0.000000E+00     608
    888023       G      0.000000E+00      0.000000E+00      0.000000E+00     609
-CONT-                  0.000000E+00      0.000000E+00      0.000000E+00     610
    888024       G      0.000000E+00      0.000000E+00      0.000000E+00     611
-CONT-                  0.000000E+00      0.000000E+00      0.000000E+00     612
    888025       G      0.000000E+00      0.000000E+00      0.000000E+00     613
-CONT-                  0.000000E+00      0.000000E+00      0.000000E+00     614
    888026       G      0.000000E+00      0.000000E+00      0.000000E+00     615
-CONT-                  0.000000E+00      0.000000E+00      0.000000E+00     616
    888027       G      0.000000E+00      0.000000E+00      0.000000E+00     617
-CONT-                  0.000000E+00      0.000000E+00      0.000000E+00     618
    999011       G     -1.088299E-11      5.293255E+00      0.000000E+00     619
-CONT-                  0.000000E+00      0.000000E+00     -4.017443E-14     620
    999012       G     -1.185379E-11      5.293255E+00      0.000000E+00     621
-CONT-                  0.000000E+00      0.000000E+00     -2.967726E-13     622
    999013       G     -1.560530E-11      5.293255E+00      0.000000E+00     623
-CONT-                  0.000000E+00      0.000000E+00     -5.682687E-13     624
    999014       G     -1.985509E-11      5.293255E+00      0.000000E+00     625
-CONT-                  0.000000E+00      0.000000E+00     -5.827110E-13     626
    999015       G     -2.423558E-11      5.293255E+00      0.000000E+00     627
-CONT-                  0.000000E+00      0.000000E+00     -6.411729E-13     628
    999016       G     -2.874450E-11      5.293255E+00      0.000000E+00     629
-CONT-                  0.000000E+00      0.000000E+00     -6.761476E-13     630
    999017       G     -3.347099E-11      5.293255E+00      0.000000E+00     631
-CONT-                  0.000000E+00      0.000000E+00     -6.941443E-13     632
    999018       G     -3.975240E-11      5.293255E+00      0.000000E+00     633
-CONT-                  0.000000E+00      0.000000E+00     -6.990006E-13     634
    999021       G     -1.046802E-11      5.293255E+00      0.000000E+00     635
-CONT-                  0.000000E+00      0.000000E+00     -1.045087E-13     636
    999022       G     -6.728145E-12      5.293255E+00      0.000000E+00     637
-CONT-                  0.000000E+00      0.000000E+00     -1.108822E-12     638
    999023       G      7.349892E-12      5.293255E+00      0.000000E+00     639
-CONT-                  0.000000E+00      0.000000E+00     -2.358932E-12     640
    999024       G      2.622630E-11      5.293255E+00      0.000000E+00     641
-CONT-                  0.000000E+00      0.000000E+00     -2.827662E-12     642
    999025       G      4.706555E-11      5.293255E+00      0.000000E+00     643
-CONT-                  0.000000E+00      0.000000E+00     -2.979904E-12     644
    999026       G      6.781443E-11      5.293255E+00      0.000000E+00     645
-CONT-                  0.000000E+00      0.000000E+00     -3.073127E-12     646
    999027       G      8.916889E-11      5.293255E+00      0.000000E+00     647
-CONT-                  0.000000E+00      0.000000E+00     -3.116299E-12     648
    999028       G      1.172970E-10      5.293255E+00      0.000000E+00     649
-CONT-                  0.000000E+00      0.000000E+00     -3.134789E-12     650
$TITLE   = MSC.NASTRAN JOB CREATED ON 20-FEB-15 AT 15:37:03                  651
$SUBTITLE=DEFAULT                                                            652
$LABEL   =                                                                   653
$EIGENVECTOR                                                                 654
$REAL OUTPUT                                                                 655
$SUBCASE ID =           1                                                    656
$EIGENVALUE =  0.0000000E+00  MODE =     3                                   657
         1       G      0.000000E+00      0.000000E+00      5.293255E+00     658
-CONT-                 -2.483579E-11     -8.592057E-12      0.000000E+00     659
         2       G      0.000000E+00      0.000000E+00      5.293255E+00     660
-CONT-                 -2.483579E-11     -8.592057E-12      0.000000E+00     661
         3       G      0.000000E+00      0.000000E+00      5.293255E+00     662
-CONT-                 -2.878976E-11     -1.114166E-11      0.000000E+00     663
         4       G      0.000000E+00      0.000000E+00      5.293255E+00     664
-CONT-                 -2.878976E-11     -1.114166E-11      0.000000E+00     665
         5       G      0.000000E+00      0.000000E+00      5.293255E+00     666
-CONT-                 -3.026960E-11     -1.174758E-11      0.000000E+00     667
         6       G      0.000000E+00      0.000000E+00      5.293255E+00     668
-CONT-                 -3.026960E-11     -1.174758E-11      0.000000E+00     669
         7       G      0.000000E+00      0.000000E+00      5.293255E+00     670
-CONT-                 -3.091435E-11     -1.235725E-11      0.000000E+00     671
         8       G      0.000000E+00      0.000000E+00      5.293255E+00     672
-CONT-                 -3.091435E-11     -1.235725E-11      0.000000E+00     673
         9       G      0.000000E+00      0.000000E+00      5.293255E+00     674
-CONT-                 -3.107034E-11     -1.266104E-11      0.000000E+00     675
        10       G      0.000000E+00      0.000000E+00      5.293255E+00     676
-CONT-                 -3.107034E-11     -1.266104E-11      0.000000E+00     677
        11       G      0.000000E+00      0.000000E+00      5.293255E+00     678
-CONT-                  8.262250E-12     -1.848198E-12      0.000000E+00     679
        12       G      0.000000E+00      0.000000E+00      5.293255E+00     680
-CONT-                  8.262250E-12     -1.848198E-12      0.000000E+00     681
        13       G      0.000000E+00      0.000000E+00      5.293255E+00     682
-CONT-                  9.787487E-12     -8.682448E-13      0.000000E+00     683
        14       G      0.000000E+00      0.000000E+00      5.293255E+00     684
-CONT-                  9.787487E-12     -8.682448E-13      0.000000E+00     685
        15       G      0.000000E+00      0.000000E+00      5.293255E+00     686
-CONT-                  9.969407E-12     -4.095505E-13      0.000000E+00     687
        16       G      0.000000E+00      0.000000E+00      5.293255E+00     688
-CONT-                  9.969407E-12     -4.095505E-13      0.000000E+00     689
        17       G      0.000000E+00      0.000000E+00      5.293255E+00     690
-CONT-                  9.866639E-12     -5.093257E-13      0.000000E+00     691
        18       G      0.000000E+00      0.000000E+00      5.293255E+00     692
-CONT-                  9.866639E-12     -5.093257E-13      0.000000E+00     693
        19       G      0.000000E+00      0.000000E+00      5.293255E+00     694
-CONT-                  9.769086E-12     -3.747127E-13      0.000000E+00     695
        20       G      0.000000E+00      0.000000E+00      5.293255E+00     696
-CONT-                  9.769086E-12     -3.747127E-13      0.000000E+00     697
       101       G      0.000000E+00      0.000000E+00      5.293255E+00     698
-CONT-                 -2.483579E-11     -8.592057E-12      0.000000E+00     699
       102       G      0.000000E+00      0.000000E+00      5.293255E+00     700
-CONT-                 -2.878976E-11     -1.114166E-11      0.000000E+00     701
       103       G      0.000000E+00      0.000000E+00      5.293255E+00     702
-CONT-                 -3.026960E-11     -1.174758E-11      0.000000E+00     703
       104       G      0.000000E+00      0.000000E+00      5.293255E+00     704
-CONT-                 -3.091435E-11     -1.235725E-11      0.000000E+00     705
       105       G      0.000000E+00      0.000000E+00      5.293255E+00     706
-CONT-                 -3.107034E-11     -1.266104E-11      0.000000E+00     707
       201       G      0.000000E+00      0.000000E+00      5.293255E+00     708
-CONT-                  8.262250E-12     -1.848198E-12      0.000000E+00     709
       202       G      0.000000E+00      0.000000E+00      5.293255E+00     710
-CONT-                  9.787487E-12     -8.682448E-13      0.000000E+00     711
       203       G      0.000000E+00      0.000000E+00      5.293255E+00     712
-CONT-                  9.969407E-12     -4.095505E-13      0.000000E+00     713
       204       G      0.000000E+00      0.000000E+00      5.293255E+00     714
-CONT-                  9.866639E-12     -5.093257E-13      0.000000E+00     715
       205       G      0.000000E+00      0.000000E+00      5.293255E+00     716
-CONT-                  9.769086E-12     -3.747127E-13      0.000000E+00     717
      1000       G      0.000000E+00      0.000000E+00      0.000000E+00     718
-CONT-                  0.000000E+00      0.000000E+00      0.000000E+00     719
      1010       G      0.000000E+00      0.000000E+00      5.293255E+00     720
-CONT-                 -4.419174E-13      4.552544E-14      0.000000E+00     721
      1011       G      0.000000E+00      0.000000E+00      5.293255E+00     722
-CONT-                 -3.760166E-14     -6.273371E-14      0.000000E+00     723
      1012       G      0.000000E+00      0.000000E+00      5.293255E+00     724
-CONT-                 -3.246154E-15      1.177821E-13      0.000000E+00     725
      1013       G      0.000000E+00      0.000000E+00      5.293255E+00     726
-CONT-                 -4.419174E-13      4.552544E-14      0.000000E+00     727
      1020       G      0.000000E+00      0.000000E+00      5.293255E+00     728
-CONT-                 -2.350538E-11     -7.810594E-12      0.000000E+00     729
      1030       G      0.000000E+00      0.000000E+00      5.293255E+00     730
-CONT-                 -2.784216E-11     -1.044693E-11      0.000000E+00     731
      1040       G      0.000000E+00      0.000000E+00      5.293255E+00     732
-CONT-                 -2.937836E-11     -1.139206E-11      0.000000E+00     733
      1050       G      0.000000E+00      0.000000E+00      5.293255E+00     734
-CONT-                 -3.040427E-11     -1.179892E-11      0.000000E+00     735
      1060       G      0.000000E+00      0.000000E+00      5.293255E+00     736
-CONT-                 -3.087703E-11     -1.229614E-11      0.000000E+00     737
      1070       G      0.000000E+00      0.000000E+00      5.293255E+00     738
-CONT-                 -3.104378E-11     -1.258391E-11      0.000000E+00     739
      1080       G      0.000000E+00      0.000000E+00      5.293255E+00     740
-CONT-                 -3.107115E-11     -1.269320E-11      0.000000E+00     741
      1090       G      0.000000E+00      0.000000E+00      5.293255E+00     742
-CONT-                 -3.107184E-11     -1.269207E-11      0.000000E+00     743
      1091       G      0.000000E+00      0.000000E+00      5.293255E+00     744
-CONT-                 -3.107184E-11     -1.269207E-11      0.000000E+00     745
      1092       G      0.000000E+00      0.000000E+00      5.293255E+00     746
-CONT-                 -3.107184E-11     -1.269207E-11      0.000000E+00     747
      2000       G      0.000000E+00      0.000000E+00      0.000000E+00     748
-CONT-                  0.000000E+00      0.000000E+00      0.000000E+00     749
      2010       G      0.000000E+00      0.000000E+00      5.293255E+00     750
-CONT-                  1.180598E-13     -1.212068E-14      0.000000E+00     751
      2011       G      0.000000E+00      0.000000E+00      5.293255E+00     752
-CONT-                 -3.385732E-14     -5.072331E-14      0.000000E+00     753
      2012       G      0.000000E+00      0.000000E+00      5.293255E+00     754
-CONT-                 -5.551532E-16      3.982129E-15      0.000000E+00     755
      2013       G      0.000000E+00      0.000000E+00      5.293255E+00     756
-CONT-                  1.180598E-13     -1.212068E-14      0.000000E+00     757
      2020       G      0.000000E+00      0.000000E+00      5.293255E+00     758
-CONT-                  7.751910E-12     -1.937656E-12      0.000000E+00     759
      2030       G      0.000000E+00      0.000000E+00      5.293255E+00     760
-CONT-                  9.427834E-12     -1.307711E-12      0.000000E+00     761
      2040       G      0.000000E+00      0.000000E+00      5.293255E+00     762
-CONT-                  9.836925E-12     -7.110616E-13      0.000000E+00     763
      2050       G      0.000000E+00      0.000000E+00      5.293255E+00     764
-CONT-                  1.000978E-11     -3.480105E-13      0.000000E+00     765
      2060       G      0.000000E+00      0.000000E+00      5.293255E+00     766
-CONT-                  9.901495E-12     -5.069934E-13      0.000000E+00     767
      2070       G      0.000000E+00      0.000000E+00      5.293255E+00     768
-CONT-                  9.766918E-12     -4.408990E-13      0.000000E+00     769
      2080       G      0.000000E+00      0.000000E+00      5.293255E+00     770
-CONT-                  9.774448E-12     -3.511462E-13      0.000000E+00     771
      2090       G      0.000000E+00      0.000000E+00      5.293255E+00     772
-CONT-                  9.774018E-12     -3.518849E-13      0.000000E+00     773
      2091       G      0.000000E+00      0.000000E+00      5.293255E+00     774
-CONT-                  9.774018E-12     -3.518849E-13      0.000000E+00     775
      2092       G      0.000000E+00      0.000000E+00      5.293255E+00     776
-CONT-                  9.774018E-12     -3.518849E-13      0.000000E+00     777
      3000       G      0.000000E+00      0.000000E+00      5.293255E+00     778
-CONT-                 -3.456231E-14     -3.235855E-14      0.000000E+00     779
      3001       G      0.000000E+00      0.000000E+00      5.293255E+00     780
-CONT-                 -3.456231E-14     -5.689893E-14      0.000000E+00     781
      3002       G      0.000000E+00      0.000000E+00      5.293255E+00     782
-CONT-                 -3.456231E-14     -5.233906E-14      0.000000E+00     783
      3004       G      0.000000E+00      0.000000E+00      5.293255E+00     784
-CONT-                 -1.884067E-14     -1.507449E-14      0.000000E+00     785
      3005       G      0.000000E+00      0.000000E+00      5.293255E+00     786
-CONT-                 -3.729134E-15     -2.946955E-16      0.000000E+00     787
      3006       G      0.000000E+00      0.000000E+00      5.293255E+00     788
-CONT-                 -3.725665E-15      3.732890E-15      0.000000E+00     789
      3007       G      0.000000E+00      0.000000E+00      5.293255E+00     790
-CONT-                 -3.725665E-15      3.552714E-15      0.000000E+00     791
      3011       G     -6.980640E-11      1.708951E-10      5.293255E+00     792
-CONT-                 -3.107184E-11     -1.269207E-11      0.000000E+00     793
      3012       G     -6.980640E-11      1.708951E-10      5.293255E+00     794
-CONT-                 -3.107184E-11     -1.269207E-11      0.000000E+00     795
      3013       G      6.980640E-11     -1.708951E-10      5.293255E+00     796
-CONT-                 -3.107184E-11     -1.269207E-11      0.000000E+00     797
      3014       G      6.980640E-11     -1.708951E-10      5.293255E+00     798
-CONT-                 -3.107184E-11     -1.269207E-11      0.000000E+00     799
      4011       G     -1.935367E-12     -5.375710E-11      5.293255E+00     800
-CONT-                  9.774018E-12     -3.518849E-13      0.000000E+00     801
      4012       G     -1.935367E-12     -5.375710E-11      5.293255E+00     802
-CONT-                  9.774018E-12     -3.518849E-13      0.000000E+00     803
      4013       G      1.935367E-12      5.375710E-11      5.293255E+00     804
-CONT-                  9.774018E-12     -3.518849E-13      0.000000E+00     805
      4014       G      1.935367E-12      5.375710E-11      5.293255E+00     806
-CONT-                  9.774018E-12     -3.518849E-13      0.000000E+00     807
      5011       G      0.000000E+00      0.000000E+00      5.293255E+00     808
-CONT-                 -2.701902E-15      6.462655E-14      0.000000E+00     809
      5012       G      0.000000E+00      0.000000E+00      5.293255E+00     810
-CONT-                 -2.701902E-15      6.462655E-14      0.000000E+00     811
      5021       G      0.000000E+00      0.000000E+00      5.293255E+00     812
-CONT-                 -6.243988E-16      2.056798E-15      0.000000E+00     813
      5022       G      0.000000E+00      0.000000E+00      5.293255E+00     814
-CONT-                 -6.243988E-16      2.056798E-15      0.000000E+00     815
      6011       G      0.000000E+00      0.000000E+00      5.293255E+00     816
-CONT-                 -2.784216E-11     -1.044693E-11      0.000000E+00     817
      6012       G      0.000000E+00      0.000000E+00      5.293255E+00     818
-CONT-                 -2.784216E-11     -1.044693E-11      0.000000E+00     819
      6021       G      0.000000E+00      0.000000E+00      5.293255E+00     820
-CONT-                  9.427835E-12     -1.307711E-12      0.000000E+00     821
      6022       G      0.000000E+00      0.000000E+00      5.293255E+00     822
-CONT-                  9.427835E-12     -1.307711E-12      0.000000E+00     823
      7011       G      0.000000E+00      0.000000E+00      5.293255E+00     824
-CONT-                 -3.040427E-11     -1.179892E-11      0.000000E+00     825
      7012       G      0.000000E+00      0.000000E+00      5.293255E+00     826
-CONT-                 -3.040427E-11     -1.179892E-11      0.000000E+00     827
      7021       G      0.000000E+00      0.000000E+00      5.293255E+00     828
-CONT-                  1.000978E-11     -3.480105E-13      0.000000E+00     829
      7022       G      0.000000E+00      0.000000E+00      5.293255E+00     830
-CONT-                  1.000978E-11     -3.480105E-13      0.000000E+00     831
      8011       G      0.000000E+00      0.000000E+00      5.293255E+00     832
-CONT-                 -3.104378E-11     -1.258390E-11      0.000000E+00     833
      8012       G      0.000000E+00      0.000000E+00      5.293255E+00     834
-CONT-                 -3.104378E-11     -1.258390E-11      0.000000E+00     835
      8021       G      0.000000E+00      0.000000E+00      5.293255E+00     836
-CONT-                  9.766918E-12     -4.408893E-13      0.000000E+00     837
      8022       G      0.000000E+00      0.000000E+00      5.293255E+00     838
-CONT-                  9.766918E-12     -4.408893E-13      0.000000E+00     839
      9001       G      0.000000E+00      0.000000E+00      5.293255E+00     840
-CONT-                 -3.456231E-14     -5.706546E-14      0.000000E+00     841
      9002       G      0.000000E+00      0.000000E+00      5.293255E+00     842
-CONT-                 -7.711961E-15     -1.776357E-15      0.000000E+00     843
      9003       G      0.000000E+00      0.000000E+00      5.293255E+00     844
-CONT-                 -3.107115E-11     -1.269320E-11      0.000000E+00     845
      9004       G      0.000000E+00      0.000000E+00      5.293255E+00     846
-CONT-                 -3.107115E-11     -1.269320E-11      0.000000E+00     847
      9005       G      0.000000E+00      0.000000E+00      5.293255E+00     848
-CONT-                  9.774448E-12     -3.511462E-13      0.000000E+00     849
      9006       G      0.000000E+00      0.000000E+00      5.293255E+00     850
-CONT-                  9.774448E-12     -3.511462E-13      0.000000E+00     851
     10001       G      0.000000E+00      0.000000E+00      5.293255E+00     852
-CONT-                 -2.701902E-15      6.462655E-14      0.000000E+00     853
     10002       G      0.000000E+00      0.000000E+00      5.293255E+00     854
-CONT-                 -2.784216E-11     -1.044693E-11      0.000000E+00     855
     10003       G      0.000000E+00      0.000000E+00      5.293255E+00     856
-CONT-                 -3.040427E-11     -1.179892E-11      0.000000E+00     857
     10004       G      0.000000E+00      0.000000E+00      5.293255E+00     858
-CONT-                 -3.104378E-11     -1.258390E-11      0.000000E+00     859
     10011       G      0.000000E+00      0.000000E+00      5.293255E+00     860
-CONT-                 -2.701902E-15      6.462655E-14      0.000000E+00     861
     10012       G      0.000000E+00      0.000000E+00      5.293255E+00     862
-CONT-                 -2.784216E-11     -1.044693E-11      0.000000E+00     863
     10013       G      0.000000E+00      0.000000E+00      5.293255E+00     864
-CONT-                 -3.040427E-11     -1.179892E-11      0.000000E+00     865
     10014       G      0.000000E+00      0.000000E+00      5.293255E+00     866
-CONT-                 -3.104378E-11     -1.258390E-11      0.000000E+00     867
     10101       G      0.000000E+00      0.000000E+00      5.293255E+00     868
-CONT-                 -2.701902E-15      6.462655E-14      0.000000E+00     869
     10102       G      0.000000E+00      0.000000E+00      5.293255E+00     870
-CONT-                 -2.784216E-11     -1.044693E-11      0.000000E+00     871
     10103       G      0.000000E+00      0.000000E+00      5.293255E+00     872
-CONT-                 -3.040427E-11     -1.179892E-11      0.000000E+00     873
     10104       G      0.000000E+00      0.000000E+00      5.293255E+00     874
-CONT-                 -3.104378E-11     -1.258391E-11      0.000000E+00     875
     13001       G      0.000000E+00      0.000000E+00      5.293255E+00     876
-CONT-                 -3.456231E-14     -5.684342E-14      0.000000E+00     877
     13002       G      0.000000E+00      0.000000E+00      5.293255E+00     878
-CONT-                 -1.470202E-14     -8.375245E-15      0.000000E+00     879
     18888       G      0.000000E+00      0.000000E+00      5.293255E+00     880
-CONT-                 -5.133345E-15     -8.881784E-16      0.000000E+00     881
     20001       G      0.000000E+00      0.000000E+00      5.293255E+00     882
-CONT-                 -6.243988E-16      2.056798E-15      0.000000E+00     883
     20002       G      0.000000E+00      0.000000E+00      5.293255E+00     884
-CONT-                  9.427835E-12     -1.307711E-12      0.000000E+00     885
     20003       G      0.000000E+00      0.000000E+00      5.293255E+00     886
-CONT-                  1.000978E-11     -3.480105E-13      0.000000E+00     887
     20004       G      0.000000E+00      0.000000E+00      5.293255E+00     888
-CONT-                  9.766918E-12     -4.408893E-13      0.000000E+00     889
     20021       G      0.000000E+00      0.000000E+00      5.293255E+00     890
-CONT-                 -6.243988E-16      2.056798E-15      0.000000E+00     891
     20022       G      0.000000E+00      0.000000E+00      5.293255E+00     892
-CONT-                  9.427835E-12     -1.307711E-12      0.000000E+00     893
     20023       G      0.000000E+00      0.000000E+00      5.293255E+00     894
-CONT-                  1.000978E-11     -3.480105E-13      0.000000E+00     895
     20024       G      0.000000E+00      0.000000E+00      5.293255E+00     896
-CONT-                  9.766918E-12     -4.408893E-13      0.000000E+00     897
     20201       G      0.000000E+00      0.000000E+00      5.293255E+00     898
-CONT-                 -6.243988E-16      2.056798E-15      0.000000E+00     899
     20202       G      0.000000E+00      0.000000E+00      5.293255E+00     900
-CONT-                  9.427834E-12     -1.307711E-12      0.000000E+00     901
     20203       G      0.000000E+00      0.000000E+00      5.293255E+00     902
-CONT-                  1.000978E-11     -3.480105E-13      0.000000E+00     903
     20204       G      0.000000E+00      0.000000E+00      5.293255E+00     904
-CONT-                  9.766918E-12     -4.408990E-13      0.000000E+00     905
     28888       G      0.000000E+00      0.000000E+00      5.293255E+00     906
-CONT-                 -1.989440E-14     -1.654232E-14      0.000000E+00     907
    100001       G      0.000000E+00      0.000000E+00      5.293255E+00     908
-CONT-                 -2.701902E-15      6.462655E-14      0.000000E+00     909
    101001       G      0.000000E+00      0.000000E+00      5.293255E+00     910
-CONT-                 -2.701902E-15      6.462655E-14      0.000000E+00     911
    200001       G      0.000000E+00      0.000000E+00      5.293255E+00     912
-CONT-                 -6.243988E-16      2.056798E-15      0.000000E+00     913
    202002       G      0.000000E+00      0.000000E+00      5.293255E+00     914
-CONT-                 -6.243988E-16      2.056798E-15      0.000000E+00     915
    888011       G      0.000000E+00      0.000000E+00      0.000000E+00     916
-CONT-                  0.000000E+00      0.000000E+00      0.000000E+00     917
    888012       G      0.000000E+00      0.000000E+00      0.000000E+00     918
-CONT-                  0.000000E+00      0.000000E+00      0.000000E+00     919
    888013       G      0.000000E+00      0.000000E+00      0.000000E+00     920
-CONT-                  0.000000E+00      0.000000E+00      0.000000E+00     921
    888014       G      0.000000E+00      0.000000E+00      0.000000E+00     922
-CONT-                  0.000000E+00      0.000000E+00      0.000000E+00     923
    888015       G      0.000000E+00      0.000000E+00      0.000000E+00     924
-CONT-                  0.000000E+00      0.000000E+00      0.000000E+00     925
    888016       G      0.000000E+00      0.000000E+00      0.000000E+00     926
-CONT-                  0.000000E+00      0.000000E+00      0.000000E+00     927
    888017       G      0.000000E+00      0.000000E+00      0.000000E+00     928
-CONT-                  0.000000E+00      0.000000E+00      0.000000E+00     929
    888021       G      0.000000E+00      0.000000E+00      0.000000E+00     930
-CONT-                  0.000000E+00      0.000000E+00      0.000000E+00     931
    888022       G      0.000000E+00      0.000000E+00      0.000000E+00     932
-CONT-                  0.000000E+00      0.000000E+00      0.000000E+00     933
    888023       G      0.000000E+00      0.000000E+00      0.000000E+00     934
-CONT-                  0.000000E+00      0.000000E+00      0.000000E+00     935
    888024       G      0.000000E+00      0.000000E+00      0.000000E+00     936
-CONT-                  0.000000E+00      0.000000E+00      0.000000E+00     937
    888025       G      0.000000E+00      0.000000E+00      0.000000E+00     938
-CONT-                  0.000000E+00      0.000000E+00      0.000000E+00     939
    888026       G      0.000000E+00      0.000000E+00      0.000000E+00     940
-CONT-                  0.000000E+00      0.000000E+00      0.000000E+00     941
    888027       G      0.000000E+00      0.000000E+00      0.000000E+00     942
-CONT-                  0.000000E+00      0.000000E+00      0.000000E+00     943
    999011       G      0.000000E+00      0.000000E+00      5.293255E+00     944
-CONT-                 -1.241153E-13      5.409123E-14      0.000000E+00     945
    999012       G      0.000000E+00      0.000000E+00      5.293255E+00     946
-CONT-                 -1.297896E-11     -4.273722E-12      0.000000E+00     947
    999013       G      0.000000E+00      0.000000E+00      5.293255E+00     948
-CONT-                 -2.602755E-11     -9.308973E-12      0.000000E+00     949
    999014       G      0.000000E+00      0.000000E+00      5.293255E+00     950
-CONT-                 -2.877133E-11     -1.112420E-11      0.000000E+00     951
    999015       G      0.000000E+00      0.000000E+00      5.293255E+00     952
-CONT-                 -2.999115E-11     -1.164343E-11      0.000000E+00     953
    999016       G      0.000000E+00      0.000000E+00      5.293255E+00     954
-CONT-                 -3.069183E-11     -1.206616E-11      0.000000E+00     955
    999017       G      0.000000E+00      0.000000E+00      5.293255E+00     956
-CONT-                 -3.098440E-11     -1.245775E-11      0.000000E+00     957
    999018       G      0.000000E+00      0.000000E+00      5.293255E+00     958
-CONT-                 -3.107059E-11     -1.268967E-11      0.000000E+00     959
    999021       G      0.000000E+00      0.000000E+00      5.293255E+00     960
-CONT-                  3.862514E-15     -4.994396E-15      0.000000E+00     961
    999022       G      0.000000E+00      0.000000E+00      5.293255E+00     962
-CONT-                  4.364904E-12     -1.141120E-12      0.000000E+00     963
    999023       G      0.000000E+00      0.000000E+00      5.293255E+00     964
-CONT-                  8.719012E-12     -1.709209E-12      0.000000E+00     965
    999024       G      0.000000E+00      0.000000E+00      5.293255E+00     966
-CONT-                  9.790337E-12     -8.697156E-13      0.000000E+00     967
    999025       G      0.000000E+00      0.000000E+00      5.293255E+00     968
-CONT-                  9.914540E-12     -5.147614E-13      0.000000E+00     969
    999026       G      0.000000E+00      0.000000E+00      5.293255E+00     970
-CONT-                  9.990200E-12     -4.407617E-13      0.000000E+00     971
    999027       G      0.000000E+00      0.000000E+00      5.293255E+00     972
-CONT-                  9.814243E-12     -4.831182E-13      0.000000E+00     973
    999028       G      0.000000E+00      0.000000E+00      5.293255E+00     974
-CONT-                  9.773713E-12     -3.550441E-13      0.000000E+00     975
$TITLE   = MSC.NASTRAN JOB CREATED ON 20-FEB-15 AT 15:37:03                  976
$SUBTITLE=DEFAULT                                                            977
$LABEL   =                                                                   978
$EIGENVECTOR                                                                 979
$REAL OUTPUT                                                                 980
$SUBCASE ID =           1                                                    981
$EIGENVALUE =  0.0000000E+00  MODE =     4                                   982
         1       G      0.000000E+00      0.000000E+00     -3.696145E+00     983
-CONT-                  2.068352E-01      1.204780E-11      0.000000E+00     984
         2       G      0.000000E+00      0.000000E+00     -3.309363E+00     985
-CONT-                  2.068352E-01      1.204780E-11      0.000000E+00     986
         3       G      0.000000E+00      0.000000E+00     -5.613507E+00     987
[...]
      1030       G      0.000000E+00      0.000000E+00     -9.185776E-01    6255
-CONT-                 -3.145465E-01      8.104535E-01      0.000000E+00    6256
      1040       G      0.000000E+00      0.000000E+00      5.654567E-01    6257
-CONT-                  1.977188E-01     -7.360753E-01      0.000000E+00    6258
      1050       G      0.000000E+00      0.000000E+00      1.431409E+00    6259
-CONT-                  3.730409E-01     -1.002001E+00      0.000000E+00    6260
      1060       G      0.000000E+00      0.000000E+00     -2.507029E-01    6261
-CONT-                 -2.673420E-01      8.970625E-01      0.000000E+00    6262
      1070       G      0.000000E+00      0.000000E+00     -1.071738E+00    6263
-CONT-                 -3.572999E-01      1.063621E+00      0.000000E+00    6264
      1080       G      0.000000E+00      0.000000E+00      4.885454E-01    6265
-CONT-                  3.590352E-01     -1.032312E+00      0.000000E+00    6266
      1090       G      0.000000E+00      0.000000E+00      1.074843E+00    6267
-CONT-                  4.735005E-01     -1.336887E+00      0.000000E+00    6268
      1091       G      0.000000E+00      0.000000E+00     -2.191841E+00    6269
-CONT-                  4.735005E-01     -1.336887E+00      0.000000E+00    6270
      1092       G      0.000000E+00      0.000000E+00      9.492554E+00    6271
-CONT-                  4.735005E-01     -1.336887E+00      0.000000E+00    6272
      2000       G      0.000000E+00      0.000000E+00      0.000000E+00    6273
-CONT-                  0.000000E+00      0.000000E+00      0.000000E+00    6274
      2010       G      0.000000E+00      0.000000E+00      2.283760E-01    6275
-CONT-                  7.607359E-03     -3.403920E-02      0.000000E+00    6276
      2011       G      0.000000E+00      0.000000E+00      1.824224E-01    6277
-CONT-                  2.457720E-02     -1.246451E-02      0.000000E+00    6278
      2012       G      0.000000E+00      0.000000E+00      2.737710E-01    6279
-CONT-                  3.242632E-02      5.574395E-04      0.000000E+00    6280
      2013       G      0.000000E+00      0.000000E+00      4.349485E-02    6281
-CONT-                  7.607359E-03     -3.403920E-02      0.000000E+00    6282
      2020       G      0.000000E+00      0.000000E+00      4.171032E-02    6283
-CONT-                 -1.587019E-01     -7.785858E-01      0.000000E+00    6284
      2030       G      0.000000E+00      0.000000E+00      9.182763E-01    6285
-CONT-                 -3.144604E-01     -8.102208E-01      0.000000E+00    6286
      2040       G      0.000000E+00      0.000000E+00     -5.654455E-01    6287
-CONT-                  1.976907E-01      7.359026E-01      0.000000E+00    6288
      2050       G      0.000000E+00      0.000000E+00     -1.430969E+00    6289
-CONT-                  3.729385E-01      1.001717E+00      0.000000E+00    6290
      2060       G      0.000000E+00      0.000000E+00      2.506996E-01    6291
-CONT-                 -2.672812E-01     -8.968397E-01      0.000000E+00    6292
      2070       G      0.000000E+00      0.000000E+00      1.071440E+00    6293
-CONT-                 -3.572056E-01     -1.063322E+00      0.000000E+00    6294
      2080       G      0.000000E+00      0.000000E+00     -4.884531E-01    6295
-CONT-                  3.589438E-01      1.032024E+00      0.000000E+00    6296
      2090       G      0.000000E+00      0.000000E+00     -1.074546E+00    6297
-CONT-                  4.733804E-01      1.336533E+00      0.000000E+00    6298
      2091       G      0.000000E+00      0.000000E+00      2.191271E+00    6299
-CONT-                  4.733804E-01      1.336533E+00      0.000000E+00    6300
      2092       G      0.000000E+00      0.000000E+00     -9.490025E+00    6301
-CONT-                  4.733804E-01      1.336533E+00      0.000000E+00    6302
      3000       G      0.000000E+00      0.000000E+00     -4.259889E-05    6303
-CONT-                  2.607593E-02     -1.322881E-05      0.000000E+00    6304
      3001       G      0.000000E+00      0.000000E+00     -2.484654E-04    6305
-CONT-                  2.607593E-02     -1.324142E-05      0.000000E+00    6306
      3002       G      0.000000E+00      0.000000E+00     -1.285010E-04    6307
-CONT-                  2.607593E-02     -1.324015E-05      0.000000E+00    6308
      3004       G      0.000000E+00      0.000000E+00      6.741489E-06    6309
-CONT-                  2.865369E-02     -1.322979E-05      0.000000E+00    6310
      3005       G      0.000000E+00      0.000000E+00      7.199145E-05    6311
-CONT-                  3.206075E-02     -1.324430E-05      0.000000E+00    6312
      3006       G      0.000000E+00      0.000000E+00      1.794877E-04    6313
-CONT-                  3.206075E-02     -1.325518E-05      0.000000E+00    6314
      3007       G      0.000000E+00      0.000000E+00      1.957783E-04    6315
-CONT-                  3.206075E-02     -1.325518E-05      0.000000E+00    6316
      3011       G     -7.352880E+00     -2.604253E+00      4.305431E+00    6317
-CONT-                  4.735005E-01     -1.336887E+00      0.000000E+00    6318
      3012       G     -7.352880E+00     -2.604253E+00      9.492554E+00    6319
-CONT-                  4.735005E-01     -1.336887E+00      0.000000E+00    6320
      3013       G      7.352880E+00      2.604253E+00      4.305431E+00    6321
-CONT-                  4.735005E-01     -1.336887E+00      0.000000E+00    6322
      3014       G      7.352880E+00      2.604253E+00      9.492554E+00    6323
-CONT-                  4.735005E-01     -1.336887E+00      0.000000E+00    6324
      4011       G      7.350930E+00     -2.603593E+00     -4.304282E+00    6325
-CONT-                  4.733804E-01      1.336533E+00      0.000000E+00    6326
      4012       G      7.350930E+00     -2.603593E+00     -9.490029E+00    6327
-CONT-                  4.733804E-01      1.336533E+00      0.000000E+00    6328
      4013       G     -7.350930E+00      2.603593E+00     -4.304282E+00    6329
-CONT-                  4.733804E-01      1.336533E+00      0.000000E+00    6330
      4014       G     -7.350930E+00      2.603593E+00     -9.490029E+00    6331
-CONT-                  4.733804E-01      1.336533E+00      0.000000E+00    6332
      5011       G      0.000000E+00      0.000000E+00     -7.100324E-02    6333
-CONT-                  3.238674E-02     -2.083589E-04      0.000000E+00    6334
      5012       G      0.000000E+00      0.000000E+00     -4.424848E-01    6335
-CONT-                  3.238674E-02     -2.083589E-04      0.000000E+00    6336
      5021       G      0.000000E+00      0.000000E+00      7.132202E-02    6337
-CONT-                  3.238669E-02      1.808365E-04      0.000000E+00    6338
      5022       G      0.000000E+00      0.000000E+00      4.426678E-01    6339
-CONT-                  3.238669E-02      1.808365E-04      0.000000E+00    6340
      6011       G      0.000000E+00      0.000000E+00     -4.386275E+00    6341
-CONT-                 -3.141784E-01      8.109751E-01      0.000000E+00    6342
      6012       G      0.000000E+00      0.000000E+00     -4.573925E+00    6343
-CONT-                 -3.141784E-01      8.109751E-01      0.000000E+00    6344
      6021       G      0.000000E+00      0.000000E+00      4.384975E+00    6345
-CONT-                 -3.140924E-01     -8.107421E-01      0.000000E+00    6346
      6022       G      0.000000E+00      0.000000E+00      4.572513E+00    6347
-CONT-                 -3.140924E-01     -8.107421E-01      0.000000E+00    6348
      7011       G      0.000000E+00      0.000000E+00      5.610765E+00    6349
-CONT-                  3.725615E-01     -1.002680E+00      0.000000E+00    6350
      7012       G      0.000000E+00      0.000000E+00      6.059993E+00    6351
-CONT-                  3.725615E-01     -1.002680E+00      0.000000E+00    6352
      7021       G      0.000000E+00      0.000000E+00     -5.609165E+00    6353
-CONT-                  3.724592E-01      1.002396E+00      0.000000E+00    6354
      7022       G      0.000000E+00      0.000000E+00     -6.058222E+00    6355
-CONT-                  3.724592E-01      1.002396E+00      0.000000E+00    6356
      8011       G      0.000000E+00      0.000000E+00     -5.243460E+00    6357
-CONT-                 -3.568279E-01      1.064290E+00      0.000000E+00    6358
      8012       G      0.000000E+00      0.000000E+00     -6.248478E+00    6359
-CONT-                 -3.568279E-01      1.064290E+00      0.000000E+00    6360
      8021       G      0.000000E+00      0.000000E+00      5.242042E+00    6361
-CONT-                 -3.567336E-01     -1.063990E+00      0.000000E+00    6362
      8022       G      0.000000E+00      0.000000E+00      6.246694E+00    6363
-CONT-                 -3.567336E-01     -1.063990E+00      0.000000E+00    6364
      9001       G      0.000000E+00      0.000000E+00     -2.062253E-04    6365
-CONT-                  2.607593E-02     -1.324134E-05      0.000000E+00    6366
      9002       G      0.000000E+00      0.000000E+00      5.477806E-05    6367
-CONT-                  3.116234E-02     -1.323895E-05      0.000000E+00    6368
      9003       G      0.000000E+00      0.000000E+00     -4.331601E+00    6369
-CONT-                  3.590352E-01     -1.032312E+00      0.000000E+00    6370
      9004       G      0.000000E+00      0.000000E+00      2.399074E+00    6371
-CONT-                  3.590352E-01     -1.032312E+00      0.000000E+00    6372
      9005       G      0.000000E+00      0.000000E+00      4.330380E+00    6373
-CONT-                  3.589438E-01      1.032024E+00      0.000000E+00    6374
      9006       G      0.000000E+00      0.000000E+00     -2.398416E+00    6375
-CONT-                  3.589438E-01      1.032024E+00      0.000000E+00    6376
     10001       G      0.000000E+00      0.000000E+00     -2.131747E-01    6377
-CONT-                  3.238674E-02     -2.083589E-04      0.000000E+00    6378
     10002       G      0.000000E+00      0.000000E+00     -4.459737E+00    6379
-CONT-                 -3.141784E-01      8.109751E-01      0.000000E+00    6380
     10003       G      0.000000E+00      0.000000E+00      5.786632E+00    6381
-CONT-                  3.725615E-01     -1.002680E+00      0.000000E+00    6382
     10004       G      0.000000E+00      0.000000E+00     -5.636909E+00    6383
-CONT-                 -3.568279E-01      1.064290E+00      0.000000E+00    6384
     10011       G      0.000000E+00      0.000000E+00     -1.927701E-01    6385
-CONT-                  3.238674E-02     -2.083589E-04      0.000000E+00    6386
     10012       G      0.000000E+00      0.000000E+00     -3.572732E+00    6387
-CONT-                 -3.141784E-01      8.109751E-01      0.000000E+00    6388
     10013       G      0.000000E+00      0.000000E+00      4.696022E+00    6389
-CONT-                  3.725615E-01     -1.002680E+00      0.000000E+00    6390
     10014       G      0.000000E+00      0.000000E+00     -4.494056E+00    6391
-CONT-                 -3.568279E-01      1.064290E+00      0.000000E+00    6392
     10101       G      0.000000E+00      0.000000E+00     -1.925004E-01    6393
-CONT-                  3.235622E-02     -2.125645E-04      0.000000E+00    6394
     10102       G      0.000000E+00      0.000000E+00     -3.555008E+00    6395
-CONT-                 -3.145465E-01      8.104535E-01      0.000000E+00    6396
     10103       G      0.000000E+00      0.000000E+00      4.674205E+00    6397
-CONT-                  3.730409E-01     -1.002001E+00      0.000000E+00    6398
     10104       G      0.000000E+00      0.000000E+00     -4.471221E+00    6399
-CONT-                 -3.572999E-01      1.063621E+00      0.000000E+00    6400
     13001       G      0.000000E+00      0.000000E+00     -1.872903E-04    6401
-CONT-                  2.607593E-02     -1.324122E-05      0.000000E+00    6402
     13002       G      0.000000E+00      0.000000E+00      2.460260E-05    6403
-CONT-                  2.958666E-02     -1.323221E-05      0.000000E+00    6404
     18888       G      0.000000E+00      0.000000E+00      6.589976E-05    6405
-CONT-                  3.174285E-02     -1.324228E-05      0.000000E+00    6406
     20001       G      0.000000E+00      0.000000E+00      2.134416E-01    6407
-CONT-                  3.238669E-02      1.808365E-04      0.000000E+00    6408
     20002       G      0.000000E+00      0.000000E+00      4.458393E+00    6409
-CONT-                 -3.140924E-01     -8.107421E-01      0.000000E+00    6410
     20003       G      0.000000E+00      0.000000E+00     -5.784964E+00    6411
-CONT-                  3.724592E-01      1.002396E+00      0.000000E+00    6412
     20004       G      0.000000E+00      0.000000E+00      5.635348E+00    6413
-CONT-                 -3.567336E-01     -1.063990E+00      0.000000E+00    6414
     20021       G      0.000000E+00      0.000000E+00      1.929960E-01    6415
-CONT-                  3.238669E-02      1.808365E-04      0.000000E+00    6416
     20022       G      0.000000E+00      0.000000E+00      3.571641E+00    6417
-CONT-                 -3.140924E-01     -8.107421E-01      0.000000E+00    6418
     20023       G      0.000000E+00      0.000000E+00     -4.694662E+00    6419
-CONT-                  3.724592E-01      1.002396E+00      0.000000E+00    6420
     20024       G      0.000000E+00      0.000000E+00      4.492814E+00    6421
-CONT-                 -3.567336E-01     -1.063990E+00      0.000000E+00    6422
     20201       G      0.000000E+00      0.000000E+00      1.927258E-01    6423
-CONT-                  3.235616E-02      1.850462E-04      0.000000E+00    6424
     20202       G      0.000000E+00      0.000000E+00      3.553922E+00    6425
-CONT-                 -3.144604E-01     -8.102208E-01      0.000000E+00    6426
     20203       G      0.000000E+00      0.000000E+00     -4.672851E+00    6427
-CONT-                  3.729385E-01      1.001717E+00      0.000000E+00    6428
     20204       G      0.000000E+00      0.000000E+00      4.469985E+00    6429
-CONT-                 -3.572056E-01     -1.063322E+00      0.000000E+00    6430
     28888       G      0.000000E+00      0.000000E+00      3.434213E-06    6431
-CONT-                  2.848092E-02     -1.322942E-05      0.000000E+00    6432
    100001       G      0.000000E+00      0.000000E+00     -1.708742E-01    6433
-CONT-                  3.235622E-02     -2.125645E-04      0.000000E+00    6434
    101001       G      0.000000E+00      0.000000E+00     -1.502005E-01    6435
-CONT-                  3.235622E-02     -2.125645E-04      0.000000E+00    6436
    200001       G      0.000000E+00      0.000000E+00      1.710561E-01    6437
-CONT-                  3.235616E-02      1.850462E-04      0.000000E+00    6438
    202002       G      0.000000E+00      0.000000E+00      1.503409E-01    6439
-CONT-                  3.235616E-02      1.850462E-04      0.000000E+00    6440
    888011       G      0.000000E+00      0.000000E+00      0.000000E+00    6441
-CONT-                  0.000000E+00      0.000000E+00      0.000000E+00    6442
    888012       G      0.000000E+00      0.000000E+00      0.000000E+00    6443
-CONT-                  0.000000E+00      0.000000E+00      0.000000E+00    6444
    888013       G      0.000000E+00      0.000000E+00      0.000000E+00    6445
-CONT-                  0.000000E+00      0.000000E+00      0.000000E+00    6446
    888014       G      0.000000E+00      0.000000E+00      0.000000E+00    6447
-CONT-                  0.000000E+00      0.000000E+00      0.000000E+00    6448
    888015       G      0.000000E+00      0.000000E+00      0.000000E+00    6449
-CONT-                  0.000000E+00      0.000000E+00      0.000000E+00    6450
    888016       G      0.000000E+00      0.000000E+00      0.000000E+00    6451
-CONT-                  0.000000E+00      0.000000E+00      0.000000E+00    6452
    888017       G      0.000000E+00      0.000000E+00      0.000000E+00    6453
-CONT-                  0.000000E+00      0.000000E+00      0.000000E+00    6454
    888021       G      0.000000E+00      0.000000E+00      0.000000E+00    6455
-CONT-                  0.000000E+00      0.000000E+00      0.000000E+00    6456
    888022       G      0.000000E+00      0.000000E+00      0.000000E+00    6457
-CONT-                  0.000000E+00      0.000000E+00      0.000000E+00    6458
    888023       G      0.000000E+00      0.000000E+00      0.000000E+00    6459
-CONT-                  0.000000E+00      0.000000E+00      0.000000E+00    6460
    888024       G      0.000000E+00      0.000000E+00      0.000000E+00    6461
-CONT-                  0.000000E+00      0.000000E+00      0.000000E+00    6462
    888025       G      0.000000E+00      0.000000E+00      0.000000E+00    6463
-CONT-                  0.000000E+00      0.000000E+00      0.000000E+00    6464
    888026       G      0.000000E+00      0.000000E+00      0.000000E+00    6465
-CONT-                  0.000000E+00      0.000000E+00      0.000000E+00    6466
    888027       G      0.000000E+00      0.000000E+00      0.000000E+00    6467
-CONT-                  0.000000E+00      0.000000E+00      0.000000E+00    6468
    999011       G      0.000000E+00      0.000000E+00     -1.192779E-01    6469
-CONT-                  1.702944E-02      1.739173E-02      0.000000E+00    6470
    999012       G      0.000000E+00      0.000000E+00      1.094133E-01    6471
-CONT-                 -7.103042E-03      4.872982E-01      0.000000E+00    6472
    999013       G      0.000000E+00      0.000000E+00     -8.882634E-01    6473
-CONT-                 -3.616535E-01      1.148254E+00      0.000000E+00    6474
    999014       G      0.000000E+00      0.000000E+00     -2.866060E-01    6475
-CONT-                 -7.691850E-02      4.365559E-02      0.000000E+00    6476
    999015       G      0.000000E+00      0.000000E+00      1.352347E+00    6477
-CONT-                  4.125093E-01     -1.241046E+00      0.000000E+00    6478
    999016       G      0.000000E+00      0.000000E+00      7.279327E-01    6479
-CONT-                  7.375072E-02     -7.313983E-02      0.000000E+00    6480
    999017       G      0.000000E+00      0.000000E+00     -9.416024E-01    6481
-CONT-                 -4.297224E-01      1.331574E+00      0.000000E+00    6482
    999018       G      0.000000E+00      0.000000E+00     -1.363302E-02    6483
-CONT-                  1.697600E-01     -4.984782E-01      0.000000E+00    6484
    999021       G      0.000000E+00      0.000000E+00      1.192309E-01    6485
-CONT-                  1.703124E-02     -1.741521E-02      0.000000E+00    6486
    999022       G      0.000000E+00      0.000000E+00     -1.093086E-01    6487
-CONT-                 -7.117154E-03     -4.871996E-01      0.000000E+00    6488
    999023       G      0.000000E+00      0.000000E+00      8.879806E-01    6489
-CONT-                 -3.615692E-01     -1.147956E+00      0.000000E+00    6490
    999024       G      0.000000E+00      0.000000E+00      2.864296E-01    6491
-CONT-                 -7.689446E-02     -4.361542E-02      0.000000E+00    6492
    999025       G      0.000000E+00      0.000000E+00     -1.351958E+00    6493
-CONT-                  4.124050E-01      1.240715E+00      0.000000E+00    6494
    999026       G      0.000000E+00      0.000000E+00     -7.276660E-01    6495
-CONT-                  7.372172E-02      7.309747E-02      0.000000E+00    6496
    999027       G      0.000000E+00      0.000000E+00      9.413876E-01    6497
-CONT-                 -4.296148E-01     -1.331221E+00      0.000000E+00    6498
    999028       G      0.000000E+00      0.000000E+00      1.359191E-02    6499
-CONT-                  1.697217E-01      4.983658E-01      0.000000E+00    6500
