$TITLE   = MSC.NASTRAN JOB CREATED ON 20-FEB-15 AT 15:37:03                    1
$SUBTITLE=DEFAULT                                                              2
$LABEL   =                                                                     3
$EIGENVECTOR                                                                   4
$REAL OUTPUT                                                                   5
$SUBCASE ID =           1                                                      6
$EIGENVALUE =  0.0000000E+00  MODE =     1                                     7
         1       G      5.288187E+00     -2.677467E-12      0.000000E+00       8
-CONT-                  0.000000E+00      0.000000E+00      2.266562E-12       9
         2       G      5.288187E+00      7.816715E-12      0.000000E+00      10
-CONT-                  0.000000E+00      0.000000E+00      2.266562E-12      11
         3       G      5.288187E+00      5.098391E-12      0.000000E+00      12
-CONT-                  0.000000E+00      0.000000E+00      3.067119E-12      13
         4       G      5.288187E+00      1.932982E-11      0.000000E+00      14
-CONT-                  0.000000E+00      0.000000E+00      3.067119E-12      15
         5       G      5.288187E+00      1.628969E-11      0.000000E+00      16
-CONT-                  0.000000E+00      0.000000E+00      3.389307E-12      17
         6       G      5.288187E+00      3.201608E-11      0.000000E+00      18
-CONT-                  0.000000E+00      0.000000E+00      3.389307E-12      19
         7       G      5.288187E+00      2.889038E-11      0.000000E+00      20
-CONT-                  0.000000E+00      0.000000E+00      3.525392E-12      21
         8       G      5.288187E+00      4.521294E-11      0.000000E+00      22
-CONT-                  0.000000E+00      0.000000E+00      3.525392E-12      23
         9       G      5.288187E+00      4.207901E-11      0.000000E+00      24
-CONT-                  0.000000E+00      0.000000E+00      3.550014E-12      25
        10       G      5.288187E+00      5.855107E-11      0.000000E+00      26
-CONT-                  0.000000E+00      0.000000E+00      3.550014E-12      27
        11       G      5.288187E+00     -9.132698E-13      0.000000E+00      28
-CONT-                  0.000000E+00      0.000000E+00      9.578380E-13      29
        12       G      5.288187E+00      3.521520E-12      0.000000E+00      30
-CONT-                  0.000000E+00      0.000000E+00      9.578380E-13      31
        13       G      5.288187E+00      2.742010E-12      0.000000E+00      32
-CONT-                  0.000000E+00      0.000000E+00      1.082882E-12      33
        14       G      5.288187E+00      7.766581E-12      0.000000E+00      34
-CONT-                  0.000000E+00      0.000000E+00      1.082882E-12      35
        15       G      5.288187E+00      6.839833E-12      0.000000E+00      36
-CONT-                  0.000000E+00      0.000000E+00      1.029914E-12      37
        16       G      5.288187E+00      1.161863E-11      0.000000E+00      38
-CONT-                  0.000000E+00      0.000000E+00      1.029914E-12      39
        17       G      5.288187E+00      1.072549E-11      0.000000E+00      40
-CONT-                  0.000000E+00      0.000000E+00      9.977879E-13      41
        18       G      5.288187E+00      1.534524E-11      0.000000E+00      42
-CONT-                  0.000000E+00      0.000000E+00      9.977879E-13      43
        19       G      5.288187E+00      1.446025E-11      0.000000E+00      44
-CONT-                  0.000000E+00      0.000000E+00      9.852751E-13      45
        20       G      5.288187E+00      1.903193E-11      0.000000E+00      46
-CONT-                  0.000000E+00      0.000000E+00      9.852751E-13      47
       101       G      5.288187E+00      4.611797E-12      0.000000E+00      48
-CONT-                  0.000000E+00      0.000000E+00      2.266562E-12      49
       102       G      5.288187E+00      1.498372E-11      0.000000E+00      50
-CONT-                  0.000000E+00      0.000000E+00      3.067119E-12      51
       103       G      5.288187E+00      2.720665E-11      0.000000E+00      52
-CONT-                  0.000000E+00      0.000000E+00      3.389307E-12      53
       104       G      5.288187E+00      4.022804E-11      0.000000E+00      54
-CONT-                  0.000000E+00      0.000000E+00      3.525392E-12      55
       105       G      5.288187E+00      5.349940E-11      0.000000E+00      56
-CONT-                  0.000000E+00      0.000000E+00      3.550014E-12      57
       201       G      5.288187E+00      2.167137E-12      0.000000E+00      58
-CONT-                  0.000000E+00      0.000000E+00      9.578380E-13      59
       202       G      5.288187E+00      6.232138E-12      0.000000E+00      60
-CONT-                  0.000000E+00      0.000000E+00      1.082882E-12      61
       203       G      5.288187E+00      1.015718E-11      0.000000E+00      62
-CONT-                  0.000000E+00      0.000000E+00      1.029914E-12      63
       204       G      5.288187E+00      1.393437E-11      0.000000E+00      64
-CONT-                  0.000000E+00      0.000000E+00      9.977879E-13      65
       205       G      5.288187E+00      1.762988E-11      0.000000E+00      66
-CONT-                  0.000000E+00      0.000000E+00      9.852751E-13      67
      1000       G      0.000000E+00      0.000000E+00      0.000000E+00      68
-CONT-                  0.000000E+00      0.000000E+00      0.000000E+00      69
      1010       G      5.288187E+00     -1.606275E-13      0.000000E+00      70
-CONT-                  0.000000E+00      0.000000E+00      2.746926E-13      71
      1011       G      5.288187E+00     -7.036474E-13      0.000000E+00      72
-CONT-                  0.000000E+00      0.000000E+00      2.048559E-13      73
      1012       G      5.288187E+00      1.574652E-14      0.000000E+00      74
-CONT-                  0.000000E+00      0.000000E+00      3.056743E-14      75
      1013       G      5.288187E+00     -1.652598E-12      0.000000E+00      76
-CONT-                  0.000000E+00      0.000000E+00      2.746926E-13      77
      1020       G      5.288187E+00      2.904343E-12      0.000000E+00      78
-CONT-                  0.000000E+00      0.000000E+00      2.003649E-12      79
      1030       G      5.288187E+00      1.093519E-11      0.000000E+00      80
-CONT-                  0.000000E+00      0.000000E+00      2.866989E-12      81
      1040       G      5.288187E+00      1.895517E-11      0.000000E+00      82
-CONT-                  0.000000E+00      0.000000E+00      3.199741E-12      83
      1050       G      5.288187E+00      2.885028E-11      0.000000E+00      84
-CONT-                  0.000000E+00      0.000000E+00      3.415614E-12      85
      1060       G      5.288187E+00      3.867580E-11      0.000000E+00      86
-CONT-                  0.000000E+00      0.000000E+00      3.516879E-12      87
      1070       G      5.288187E+00      4.842790E-11      0.000000E+00      88
-CONT-                  0.000000E+00      0.000000E+00      3.550088E-12      89
      1080       G      5.288187E+00      5.921114E-11      0.000000E+00      90
-CONT-                  0.000000E+00      0.000000E+00      3.545684E-12      91
      1090       G      5.288187E+00      6.315542E-11      0.000000E+00      92
-CONT-                  0.000000E+00      0.000000E+00      3.544474E-12      93
      1091       G      5.288187E+00      5.449450E-11      0.000000E+00      94
-CONT-                  0.000000E+00      0.000000E+00      3.544474E-12      95
      1092       G      5.288187E+00      8.547320E-11      0.000000E+00      96
-CONT-                  0.000000E+00      0.000000E+00      3.544474E-12      97
      2000       G      0.000000E+00      0.000000E+00      0.000000E+00      98
-CONT-                  0.000000E+00      0.000000E+00      0.000000E+00      99
      2010       G      5.288187E+00     -2.486979E-13      0.000000E+00     100
-CONT-                  0.000000E+00      0.000000E+00      2.192110E-13     101
      2011       G      5.288187E+00     -7.213961E-13      0.000000E+00     102
-CONT-                  0.000000E+00      0.000000E+00      2.029477E-13     103
      2012       G      5.288187E+00      1.182875E-14      0.000000E+00     104
-CONT-                  0.000000E+00      0.000000E+00      2.926955E-14     105
      2013       G      5.288187E+00     -1.439325E-12      0.000000E+00     106
-CONT-                  0.000000E+00      0.000000E+00      2.192110E-13     107
      2020       G      5.288187E+00      1.427623E-12      0.000000E+00     108
-CONT-                  0.000000E+00      0.000000E+00      8.739084E-13     109
      2030       G      5.288187E+00      4.732172E-12      0.000000E+00     110
-CONT-                  0.000000E+00      0.000000E+00      1.091211E-12     111
      2040       G      5.288187E+00      7.573713E-12      0.000000E+00     112
-CONT-                  0.000000E+00      0.000000E+00      1.061636E-12     113
      2050       G      5.288187E+00      1.065065E-11      0.000000E+00     114
-CONT-                  0.000000E+00      0.000000E+00      1.024868E-12     115
      2060       G      5.288187E+00      1.349549E-11      0.000000E+00     116
-CONT-                  0.000000E+00      0.000000E+00      1.000283E-12     117
      2070       G      5.288187E+00      1.622466E-11      0.000000E+00     118
-CONT-                  0.000000E+00      0.000000E+00      9.878805E-13     119
      2080       G      5.288187E+00      1.921376E-11      0.000000E+00     120
-CONT-                  0.000000E+00      0.000000E+00      9.841560E-13     121
      2090       G      5.288187E+00      2.030793E-11      0.000000E+00     122
-CONT-                  0.000000E+00      0.000000E+00      9.838446E-13     123
      2091       G      5.288187E+00      1.790391E-11      0.000000E+00     124
-CONT-                  0.000000E+00      0.000000E+00      9.838446E-13     125
      2092       G      5.288187E+00      2.650271E-11      0.000000E+00     126
-CONT-                  0.000000E+00      0.000000E+00      9.838446E-13     127
      3000       G      5.288187E+00     -8.833021E-13      0.000000E+00     128
-CONT-                  0.000000E+00      0.000000E+00      2.028454E-13     129
      3001       G      5.288187E+00     -4.037548E-12      0.000000E+00     130
-CONT-                  0.000000E+00      0.000000E+00      2.028454E-13     131
      3002       G      5.288187E+00     -2.199769E-12      0.000000E+00     132
-CONT-                  0.000000E+00      0.000000E+00      2.028454E-13     133
      3004       G      5.288187E+00     -2.764268E-13      0.000000E+00     134
-CONT-                  0.000000E+00      0.000000E+00      1.198409E-13     135
      3005       G      5.288187E+00      4.853554E-15      0.000000E+00     136
-CONT-                  0.000000E+00      0.000000E+00      2.205134E-14     137
      3006       G      5.288187E+00      1.757383E-13      0.000000E+00     138
-CONT-                  0.000000E+00      0.000000E+00      2.106827E-14     139
      3007       G      5.288187E+00      2.016312E-13      0.000000E+00     140
-CONT-                  0.000000E+00      0.000000E+00      2.106827E-14     141
      3011       G      5.288187E+00      7.172064E-11      0.000000E+00     142
-CONT-                  0.000000E+00      0.000000E+00      3.544474E-12     143
      3012       G      5.288187E+00      8.547320E-11      0.000000E+00     144
-CONT-                  0.000000E+00      0.000000E+00      3.544474E-12     145
      3013       G      5.288187E+00      7.172064E-11      0.000000E+00     146
-CONT-                  0.000000E+00      0.000000E+00      3.544474E-12     147
      3014       G      5.288187E+00      8.547320E-11      0.000000E+00     148
-CONT-                  0.000000E+00      0.000000E+00      3.544474E-12     149
      4011       G      5.288187E+00      2.268539E-11      0.000000E+00     150
-CONT-                  0.000000E+00      0.000000E+00      9.838446E-13     151
      4012       G      5.288187E+00      2.650271E-11      0.000000E+00     152
-CONT-                  0.000000E+00      0.000000E+00      9.838446E-13     153
      4013       G      5.288187E+00      2.268539E-11      0.000000E+00     154
-CONT-                  0.000000E+00      0.000000E+00      9.838446E-13     155
      4014       G      5.288187E+00      2.650271E-11      0.000000E+00     156
-CONT-                  0.000000E+00      0.000000E+00      9.838446E-13     157
      5011       G      5.288187E+00      1.966497E-13      0.000000E+00     158
-CONT-                  0.000000E+00      0.000000E+00      2.868578E-14     159
      5012       G      5.288187E+00      5.564510E-14      0.000000E+00     160
-CONT-                  0.000000E+00      0.000000E+00      2.868578E-14     161
      5021       G      5.288187E+00      1.876829E-13      0.000000E+00     162
-CONT-                  0.000000E+00      0.000000E+00      2.763174E-14     163
      5022       G      5.288187E+00      5.185943E-14      0.000000E+00     164
-CONT-                  0.000000E+00      0.000000E+00      2.763174E-14     165
      6011       G      5.288187E+00      1.555517E-11      0.000000E+00     166
-CONT-                  0.000000E+00      0.000000E+00      2.866989E-12     167
      6012       G      5.288187E+00      3.140678E-11      0.000000E+00     168
-CONT-                  0.000000E+00      0.000000E+00      2.866989E-12     169
      6021       G      5.288187E+00      6.490548E-12      0.000000E+00     170
-CONT-                  0.000000E+00      0.000000E+00      1.091211E-12     171
      6022       G      5.288187E+00      1.252387E-11      0.000000E+00     172
-CONT-                  0.000000E+00      0.000000E+00      1.091211E-12     173
      7011       G      5.288187E+00      3.435810E-11      0.000000E+00     174
-CONT-                  0.000000E+00      0.000000E+00      3.415612E-12     175
      7012       G      5.288187E+00      5.324305E-11      0.000000E+00     176
-CONT-                  0.000000E+00      0.000000E+00      3.415612E-12     177
      7021       G      5.288187E+00      1.230328E-11      0.000000E+00     178
-CONT-                  0.000000E+00      0.000000E+00      1.024871E-12     179
      7022       G      5.288187E+00      1.796980E-11      0.000000E+00     180
-CONT-                  0.000000E+00      0.000000E+00      1.024871E-12     181
      8011       G      5.288187E+00      5.415621E-11      0.000000E+00     182
-CONT-                  0.000000E+00      0.000000E+00      3.550088E-12     183
      8012       G      5.288187E+00      7.378468E-11      0.000000E+00     184
-CONT-                  0.000000E+00      0.000000E+00      3.550088E-12     185
      8021       G      5.288187E+00      1.781868E-11      0.000000E+00     186
-CONT-                  0.000000E+00      0.000000E+00      9.878805E-13     187
      8022       G      5.288187E+00      2.328068E-11      0.000000E+00     188
-CONT-                  0.000000E+00      0.000000E+00      9.878805E-13     189
      9001       G      5.288187E+00     -3.390471E-12      0.000000E+00     190
-CONT-                  0.000000E+00      0.000000E+00      2.028454E-13     191
      9002       G      5.288187E+00     -1.028346E-14      0.000000E+00     192
-CONT-                  0.000000E+00      0.000000E+00      2.276451E-14     193
      9003       G      5.288187E+00      4.216704E-11      0.000000E+00     194
-CONT-                  0.000000E+00      0.000000E+00      3.545684E-12     195
      9004       G      5.288187E+00      6.528490E-11      0.000000E+00     196
-CONT-                  0.000000E+00      0.000000E+00      3.545684E-12     197
      9005       G      5.288187E+00      1.448293E-11      0.000000E+00     198
-CONT-                  0.000000E+00      0.000000E+00      9.841560E-13     199
      9006       G      5.288187E+00      2.089962E-11      0.000000E+00     200
-CONT-                  0.000000E+00      0.000000E+00      9.841560E-13     201
     10001       G      5.288187E+00      1.426851E-13      0.000000E+00     202
-CONT-                  0.000000E+00      0.000000E+00      2.868578E-14     203
     10002       G      5.288187E+00      2.176083E-11      0.000000E+00     204
-CONT-                  0.000000E+00      0.000000E+00      2.866989E-12     205
     10003       G      5.288187E+00      4.175127E-11      0.000000E+00     206
-CONT-                  0.000000E+00      0.000000E+00      3.415612E-12     207
     10004       G      5.288187E+00      6.184046E-11      0.000000E+00     208
-CONT-                  0.000000E+00      0.000000E+00      3.550088E-12     209
     10011       G      5.288187E+00      9.998950E-14      0.000000E+00     210
-CONT-                  0.000000E+00      0.000000E+00      2.868578E-14     211
     10012       G      5.288187E+00      1.904973E-11      0.000000E+00     212
-CONT-                  0.000000E+00      0.000000E+00      2.866989E-12     213
     10013       G      5.288187E+00      3.852137E-11      0.000000E+00     214
-CONT-                  0.000000E+00      0.000000E+00      3.415612E-12     215
     10014       G      5.288187E+00      5.848340E-11      0.000000E+00     216
-CONT-                  0.000000E+00      0.000000E+00      3.550088E-12     217
     10101       G      5.288187E+00      9.946241E-14      0.000000E+00     218
-CONT-                  0.000000E+00      0.000000E+00      2.868337E-14     219
     10102       G      5.288187E+00      1.899657E-11      0.000000E+00     220
-CONT-                  0.000000E+00      0.000000E+00      2.866989E-12     221
     10103       G      5.288187E+00      3.845804E-11      0.000000E+00     222
-CONT-                  0.000000E+00      0.000000E+00      3.415614E-12     223
     10104       G      5.288187E+00      5.841757E-11      0.000000E+00     224
-CONT-                  0.000000E+00      0.000000E+00      3.550088E-12     225
     13001       G      5.288187E+00     -3.100402E-12      0.000000E+00     226
-CONT-                  0.000000E+00      0.000000E+00      2.028454E-13     227
     13002       G      5.288187E+00     -1.371708E-13      0.000000E+00     228
-CONT-                  0.000000E+00      0.000000E+00      8.625230E-14     229
     18888       G      5.288187E+00      0.000000E+00      0.000000E+00     230
-CONT-                  0.000000E+00      0.000000E+00      1.173427E-14     231
     20001       G      5.288187E+00      1.357012E-13      0.000000E+00     232
-CONT-                  0.000000E+00      0.000000E+00      2.763174E-14     233
     20002       G      5.288187E+00      8.852500E-12      0.000000E+00     234
-CONT-                  0.000000E+00      0.000000E+00      1.091211E-12     235
     20003       G      5.288187E+00      1.452164E-11      0.000000E+00     236
-CONT-                  0.000000E+00      0.000000E+00      1.024871E-12     237
     20004       G      5.288187E+00      1.995697E-11      0.000000E+00     238
-CONT-                  0.000000E+00      0.000000E+00      9.878805E-13     239
     20021       G      5.288187E+00      9.457443E-14      0.000000E+00     240
-CONT-                  0.000000E+00      0.000000E+00      2.763174E-14     241
     20022       G      5.288187E+00      7.820621E-12      0.000000E+00     242
-CONT-                  0.000000E+00      0.000000E+00      1.091211E-12     243
     20023       G      5.288187E+00      1.355249E-11      0.000000E+00     244
-CONT-                  0.000000E+00      0.000000E+00      1.024871E-12     245
     20024       G      5.288187E+00      1.902281E-11      0.000000E+00     246
-CONT-                  0.000000E+00      0.000000E+00      9.878805E-13     247
     20201       G      5.288187E+00      9.406667E-14      0.000000E+00     248
-CONT-                  0.000000E+00      0.000000E+00      2.763415E-14     249
     20202       G      5.288187E+00      7.800388E-12      0.000000E+00     250
-CONT-                  0.000000E+00      0.000000E+00      1.091211E-12     251
     20203       G      5.288187E+00      1.353349E-11      0.000000E+00     252
-CONT-                  0.000000E+00      0.000000E+00      1.024868E-12     253
     20204       G      5.288187E+00      1.900449E-11      0.000000E+00     254
-CONT-                  0.000000E+00      0.000000E+00      9.878805E-13     255
     28888       G      5.288187E+00     -3.071617E-13      0.000000E+00     256
-CONT-                  0.000000E+00      0.000000E+00      1.258877E-13     257
    100001       G      5.288187E+00      5.415464E-14      0.000000E+00     258
-CONT-                  0.000000E+00      0.000000E+00      2.868337E-14     259
    101001       G      5.288187E+00      1.084275E-14      0.000000E+00     260
-CONT-                  0.000000E+00      0.000000E+00      2.868337E-14     261
    200001       G      5.288187E+00      5.041624E-14      0.000000E+00     262
-CONT-                  0.000000E+00      0.000000E+00      2.763415E-14     263
    202002       G      5.288187E+00      8.688673E-15      0.000000E+00     264
-CONT-                  0.000000E+00      0.000000E+00      2.763415E-14     265
    888011       G      0.000000E+00      0.000000E+00      0.000000E+00     266
-CONT-                  0.000000E+00      0.000000E+00      0.000000E+00     267
    888012       G      0.000000E+00      0.000000E+00      0.000000E+00     268
-CONT-                  0.000000E+00      0.000000E+00      0.000000E+00     269
    888013       G      0.000000E+00      0.000000E+00      0.000000E+00     270
-CONT-                  0.000000E+00      0.000000E+00      0.000000E+00     271
    888014       G      0.000000E+00      0.000000E+00      0.000000E+00     272
-CONT-                  0.000000E+00      0.000000E+00      0.000000E+00     273
    888015       G      0.000000E+00      0.000000E+00      0.000000E+00     274
-CONT-                  0.000000E+00      0.000000E+00      0.000000E+00     275
    888016       G      0.000000E+00      0.000000E+00      0.000000E+00     276
-CONT-                  0.000000E+00      0.000000E+00      0.000000E+00     277
    888017       G      0.000000E+00      0.000000E+00      0.000000E+00     278
-CONT-                  0.000000E+00      0.000000E+00      0.000000E+00     279
    888021       G      0.000000E+00      0.000000E+00      0.000000E+00     280
-CONT-                  0.000000E+00      0.000000E+00      0.000000E+00     281
    888022       G      0.000000E+00      0.000000E+00      0.000000E+00     282
-CONT-                  0.000000E+00      0.000000E+00      0.000000E+00     283
    888023       G      0.000000E+00      0.000000E+00      0.000000E+00     284
-CONT-                  0.000000E+00      0.000000E+00      0.000000E+00     285
    888024       G      0.000000E+00      0.000000E+00      0.000000E+00     286
-CONT-                  0.000000E+00      0.000000E+00      0.000000E+00     287
    888025       G      0.000000E+00      0.000000E+00      0.000000E+00     288
-CONT-                  0.000000E+00      0.000000E+00      0.000000E+00     289
    888026       G      0.000000E+00      0.000000E+00      0.000000E+00     290
-CONT-                  0.000000E+00      0.000000E+00      0.000000E+00     291
    888027       G      0.000000E+00      0.000000E+00      0.000000E+00     292
-CONT-                  0.000000E+00      0.000000E+00      0.000000E+00     293
    999011       G      5.288187E+00     -5.501255E-13      0.000000E+00     294
-CONT-                  0.000000E+00      0.000000E+00      2.322937E-13     295
    999012       G      5.288187E+00      7.339719E-13      0.000000E+00     296
-CONT-                  0.000000E+00      0.000000E+00      1.213281E-12     297
    999013       G      5.288187E+00      6.570945E-12      0.000000E+00     298
-CONT-                  0.000000E+00      0.000000E+00      2.502982E-12     299
    999014       G      5.288187E+00      1.485152E-11      0.000000E+00     300
-CONT-                  0.000000E+00      0.000000E+00      3.062069E-12     301
    999015       G      5.288187E+00      2.420381E-11      0.000000E+00     302
-CONT-                  0.000000E+00      0.000000E+00      3.332906E-12     303
    999016       G      5.288187E+00      3.372872E-11      0.000000E+00     304
-CONT-                  0.000000E+00      0.000000E+00      3.477271E-12     305
    999017       G      5.288187E+00      4.353936E-11      0.000000E+00     306
-CONT-                  0.000000E+00      0.000000E+00      3.539280E-12     307
    999018       G      5.288187E+00      5.639039E-11      0.000000E+00     308
-CONT-                  0.000000E+00      0.000000E+00      3.547611E-12     309
    999021       G      5.288187E+00     -5.731967E-13      0.000000E+00     310
-CONT-                  0.000000E+00      0.000000E+00      2.054295E-13     311
    999022       G      5.288187E+00      3.440983E-13      0.000000E+00     312
-CONT-                  0.000000E+00      0.000000E+00      5.897545E-13     313
    999023       G      5.288187E+00      2.988190E-12      0.000000E+00     314
-CONT-                  0.000000E+00      0.000000E+00      1.023621E-12     315
    999024       G      5.288187E+00      6.185054E-12      0.000000E+00     316
-CONT-                  0.000000E+00      0.000000E+00      1.083884E-12     317
    999025       G      5.288187E+00      9.240072E-12      0.000000E+00     318
-CONT-                  0.000000E+00      0.000000E+00      1.039779E-12     319
    999026       G      5.288187E+00      1.208210E-11      0.000000E+00     320
-CONT-                  0.000000E+00      0.000000E+00      1.011054E-12     321
    999027       G      5.288187E+00      1.486437E-11      0.000000E+00     322
-CONT-                  0.000000E+00      0.000000E+00      9.927846E-13     323
    999028       G      5.288187E+00      1.843084E-11      0.000000E+00     324
-CONT-                  0.000000E+00      0.000000E+00      9.845780E-13     325
$TITLE   = MSC.NASTRAN JOB CREATED ON 20-FEB-15 AT 15:37:03                  326
$SUBTITLE=DEFAULT                                                            327
$LABEL   =                                                                   328
$EIGENVECTOR                                                                 329
$REAL OUTPUT                                                                 330
$SUBCASE ID =           1                                                    331
$EIGENVALUE =  0.0000000E+00  MODE =     2                                   332
         1       G      9.896293E-12      5.288187E+00      0.000000E+00     333
-CONT-                  0.000000E+00      0.000000E+00     -5.760618E-13     334
         2       G      1.097353E-11      5.288187E+00      0.000000E+00     335
-CONT-                  0.000000E+00      0.000000E+00     -5.760618E-13     336
         3       G      2.673905E-12      5.288187E+00      0.000000E+00     337
-CONT-                  0.000000E+00      0.000000E+00     -8.412138E-13     338
         4       G      4.246975E-12      5.288187E+00      0.000000E+00     339
-CONT-                  0.000000E+00      0.000000E+00     -8.412138E-13     340
         5       G     -5.558998E-12      5.288187E+00      0.000000E+00     341
-CONT-                  0.000000E+00      0.000000E+00     -9.055020E-13     342
         6       G     -3.856654E-12      5.288187E+00      0.000000E+00     343
-CONT-                  0.000000E+00      0.000000E+00     -9.055020E-13     344
         7       G     -1.401743E-11      5.288187E+00      0.000000E+00     345
-CONT-                  0.000000E+00      0.000000E+00     -9.098962E-13     346
         8       G     -1.230682E-11      5.288187E+00      0.000000E+00     347
-CONT-                  0.000000E+00      0.000000E+00     -9.098962E-13     348
         9       G     -2.237406E-11      5.288187E+00      0.000000E+00     349
-CONT-                  0.000000E+00      0.000000E+00     -8.997227E-13     350
        10       G     -2.069158E-11      5.288187E+00      0.000000E+00     351
-CONT-                  0.000000E+00      0.000000E+00     -8.997227E-13     352
        11       G     -9.583573E-12      5.288187E+00      0.000000E+00     353
-CONT-                  0.000000E+00      0.000000E+00      2.521695E-12     354
        12       G     -4.868002E-12      5.288187E+00      0.000000E+00     355
-CONT-                  0.000000E+00      0.000000E+00      2.521695E-12     356
        13       G     -3.909224E-11      5.288187E+00      0.000000E+00     357
-CONT-                  0.000000E+00      0.000000E+00      3.336050E-12     358
        14       G     -3.285383E-11      5.288187E+00      0.000000E+00     359
-CONT-                  0.000000E+00      0.000000E+00      3.336050E-12     360
        15       G     -7.140027E-11      5.288187E+00      0.000000E+00     361
-CONT-                  0.000000E+00      0.000000E+00      3.524498E-12     362
        16       G     -6.477421E-11      5.288187E+00      0.000000E+00     363
-CONT-                  0.000000E+00      0.000000E+00      3.524498E-12     364
        17       G     -1.044422E-10      5.288187E+00      0.000000E+00     365
-CONT-                  0.000000E+00      0.000000E+00      3.574196E-12     366
        18       G     -9.772274E-11      5.288187E+00      0.000000E+00     367
-CONT-                  0.000000E+00      0.000000E+00      3.574196E-12     368
        19       G     -1.376485E-10      5.288187E+00      0.000000E+00     369
-CONT-                  0.000000E+00      0.000000E+00      3.580979E-12     370
        20       G     -1.309521E-10      5.288187E+00      0.000000E+00     371
-CONT-                  0.000000E+00      0.000000E+00      3.580979E-12     372
       101       G      1.064460E-11      5.288187E+00      0.000000E+00     373
-CONT-                  0.000000E+00      0.000000E+00     -5.760618E-13     374
       102       G      3.766642E-12      5.288187E+00      0.000000E+00     375
-CONT-                  0.000000E+00      0.000000E+00     -8.412138E-13     376
       103       G     -4.377318E-12      5.288187E+00      0.000000E+00     377
-CONT-                  0.000000E+00      0.000000E+00     -9.055020E-13     378
       104       G     -1.282910E-11      5.288187E+00      0.000000E+00     379
-CONT-                  0.000000E+00      0.000000E+00     -9.098962E-13     380
       105       G     -2.120712E-11      5.288187E+00      0.000000E+00     381
-CONT-                  0.000000E+00      0.000000E+00     -8.997227E-13     382
       201       G     -6.307890E-12      5.288187E+00      0.000000E+00     383
-CONT-                  0.000000E+00      0.000000E+00      2.521695E-12     384
       202       G     -3.475871E-11      5.288187E+00      0.000000E+00     385
-CONT-                  0.000000E+00      0.000000E+00      3.336050E-12     386
       203       G     -6.680079E-11      5.288187E+00      0.000000E+00     387
-CONT-                  0.000000E+00      0.000000E+00      3.524498E-12     388
       204       G     -9.977433E-11      5.288187E+00      0.000000E+00     389
-CONT-                  0.000000E+00      0.000000E+00      3.574196E-12     390
       205       G     -1.330040E-10      5.288187E+00      0.000000E+00     391
-CONT-                  0.000000E+00      0.000000E+00      3.580979E-12     392
      1000       G      0.000000E+00      0.000000E+00      0.000000E+00     393
-CONT-                  0.000000E+00      0.000000E+00      0.000000E+00     394
      1010       G      1.330243E-11      5.288187E+00      0.000000E+00     395
-CONT-                  0.000000E+00      0.000000E+00      1.651421E-13     396
      1011       G      1.331661E-11      5.288187E+00      0.000000E+00     397
-CONT-                  0.000000E+00      0.000000E+00      2.255198E-13     398
      1012       G      1.319906E-11      5.288187E+00      0.000000E+00     399
-CONT-                  0.000000E+00      0.000000E+00      2.674181E-14     400
      1013       G      1.330243E-11      5.288187E+00      0.000000E+00     401
-CONT-                  0.000000E+00      0.000000E+00      1.651421E-13     402
      1020       G      1.165090E-11      5.288187E+00      0.000000E+00     403
-CONT-                  0.000000E+00      0.000000E+00     -4.748959E-13     404
      1030       G      6.510485E-12      5.288187E+00      0.000000E+00     405
-CONT-                  0.000000E+00      0.000000E+00     -7.883742E-13     406
      1040       G      1.099962E-12      5.288187E+00      0.000000E+00     407
-CONT-                  0.000000E+00      0.000000E+00     -8.702747E-13     408
      1050       G     -5.457032E-12      5.288187E+00      0.000000E+00     409
-CONT-                  0.000000E+00      0.000000E+00     -9.082612E-13     410
      1060       G     -1.183572E-11      5.288187E+00      0.000000E+00     411
-CONT-                  0.000000E+00      0.000000E+00     -9.115933E-13     412
      1070       G     -1.800445E-11      5.288187E+00      0.000000E+00     413
-CONT-                  0.000000E+00      0.000000E+00     -9.013189E-13     414
      1080       G     -2.477497E-11      5.288187E+00      0.000000E+00     415
-CONT-                  0.000000E+00      0.000000E+00     -9.007501E-13     416
      1090       G     -2.713816E-11      5.288187E+00      0.000000E+00     417
-CONT-                  0.000000E+00      0.000000E+00     -9.006419E-13     418
      1091       G     -2.713816E-11      5.288187E+00      0.000000E+00     419
-CONT-                  0.000000E+00      0.000000E+00     -9.006419E-13     420
      1092       G     -2.713816E-11      5.288187E+00      0.000000E+00     421
-CONT-                  0.000000E+00      0.000000E+00     -9.006419E-13     422
      2000       G      0.000000E+00      0.000000E+00      0.000000E+00     423
-CONT-                  0.000000E+00      0.000000E+00      0.000000E+00     424
      2010       G      9.820360E-12      5.288187E+00      0.000000E+00     425
-CONT-                  0.000000E+00      0.000000E+00      3.170743E-13     426
      2011       G      9.834120E-12      5.288187E+00      0.000000E+00     427
-CONT-                  0.000000E+00      0.000000E+00      2.308705E-13     428
      2012       G      9.970610E-12      5.288187E+00      0.000000E+00     429
-CONT-                  0.000000E+00      0.000000E+00      3.003679E-14     430
      2013       G      9.820360E-12      5.288187E+00      0.000000E+00     431
-CONT-                  0.000000E+00      0.000000E+00      3.170743E-13     432
      2020       G     -1.665270E-12      5.288187E+00      0.000000E+00     433
-CONT-                  0.000000E+00      0.000000E+00      2.215998E-12     434
      2030       G     -2.369821E-11      5.288187E+00      0.000000E+00     435
-CONT-                  0.000000E+00      0.000000E+00      3.166615E-12     436
      2040       G     -4.533133E-11      5.288187E+00      0.000000E+00     437
-CONT-                  0.000000E+00      0.000000E+00      3.421144E-12     438
      2050       G     -7.100903E-11      5.288187E+00      0.000000E+00     439
-CONT-                  0.000000E+00      0.000000E+00      3.535263E-12     440
      2060       G     -9.587887E-11      5.288187E+00      0.000000E+00     441
-CONT-                  0.000000E+00      0.000000E+00      3.571407E-12     442
      2070       G     -1.202432E-10      5.288187E+00      0.000000E+00     443
-CONT-                  0.000000E+00      0.000000E+00      3.580709E-12     444
      2080       G     -1.471932E-10      5.288187E+00      0.000000E+00     445
-CONT-                  0.000000E+00      0.000000E+00      3.581571E-12     446
      2090       G     -1.565955E-10      5.288187E+00      0.000000E+00     447
-CONT-                  0.000000E+00      0.000000E+00      3.582992E-12     448
      2091       G     -1.565955E-10      5.288187E+00      0.000000E+00     449
-CONT-                  0.000000E+00      0.000000E+00      3.582992E-12     450
      2092       G     -1.565955E-10      5.288187E+00      0.000000E+00     451
-CONT-                  0.000000E+00      0.000000E+00      3.582992E-12     452
      3000       G      1.185646E-11      5.288187E+00      0.000000E+00     453
-CONT-                  0.000000E+00      0.000000E+00      2.282377E-13     454
      3001       G      1.185646E-11      5.288187E+00      0.000000E+00     455
-CONT-                  0.000000E+00      0.000000E+00      1.907363E-13     456
      3002       G      1.185646E-11      5.288187E+00      0.000000E+00     457
-CONT-                  0.000000E+00      0.000000E+00      1.982508E-13     458
      3004       G      1.185643E-11      5.288187E+00      0.000000E+00     459
-CONT-                  0.000000E+00      0.000000E+00      3.357758E-13     460
      3005       G      1.185637E-11      5.288187E+00      0.000000E+00     461
-CONT-                  0.000000E+00      0.000000E+00      2.323651E-14     462
      3006       G      1.185637E-11      5.288187E+00      0.000000E+00     463
-CONT-                  0.000000E+00      0.000000E+00      8.280114E-15     464
      3007       G      1.185637E-11      5.288187E+00      0.000000E+00     465
-CONT-                  0.000000E+00      0.000000E+00      7.993606E-15     466
      3011       G     -2.713816E-11      5.288187E+00      0.000000E+00     467
-CONT-                  0.000000E+00      0.000000E+00     -9.006419E-13     468
      3012       G     -2.713816E-11      5.288187E+00      0.000000E+00     469
-CONT-                  0.000000E+00      0.000000E+00     -9.006419E-13     470
      3013       G     -2.713816E-11      5.288187E+00      0.000000E+00     471
-CONT-                  0.000000E+00      0.000000E+00     -9.006419E-13     472
      3014       G     -2.713816E-11      5.288187E+00      0.000000E+00     473
-CONT-                  0.000000E+00      0.000000E+00     -9.006419E-13     474
      4011       G     -1.565955E-10      5.288187E+00      0.000000E+00     475
-CONT-                  0.000000E+00      0.000000E+00      3.582992E-12     476
      4012       G     -1.565955E-10      5.288187E+00      0.000000E+00     477
-CONT-                  0.000000E+00      0.000000E+00      3.582992E-12     478
      4013       G     -1.565955E-10      5.288187E+00      0.000000E+00     479
-CONT-                  0.000000E+00      0.000000E+00      3.582992E-12     480
      4014       G     -1.565955E-10      5.288187E+00      0.000000E+00     481
-CONT-                  0.000000E+00      0.000000E+00      3.582992E-12     482
      5011       G      1.252710E-11      5.288187E+00      0.000000E+00     483
-CONT-                  0.000000E+00      0.000000E+00      2.495318E-14     484
      5012       G      1.281253E-11      5.288187E+00      0.000000E+00     485
-CONT-                  0.000000E+00      0.000000E+00      2.495318E-14     486
      5021       G      1.089650E-11      5.288187E+00      0.000000E+00     487
-CONT-                  0.000000E+00      0.000000E+00      2.763591E-14     488
      5022       G      1.058039E-11      5.288187E+00      0.000000E+00     489
-CONT-                  0.000000E+00      0.000000E+00      2.763591E-14     490
      6011       G      1.193457E-11      5.288187E+00      0.000000E+00     491
-CONT-                  0.000000E+00      0.000000E+00     -7.883742E-13     492
      6012       G      1.153933E-12      5.288187E+00      0.000000E+00     493
-CONT-                  0.000000E+00      0.000000E+00     -7.883742E-13     494
      6021       G     -1.911602E-12      5.288187E+00      0.000000E+00     495
-CONT-                  0.000000E+00      0.000000E+00      3.166615E-12     496
      6022       G     -4.521355E-11      5.288187E+00      0.000000E+00     497
-CONT-                  0.000000E+00      0.000000E+00      3.166615E-12     498
      7011       G      7.923053E-13      5.288187E+00      0.000000E+00     499
-CONT-                  0.000000E+00      0.000000E+00     -9.082612E-13     500
      7012       G     -1.162773E-11      5.288187E+00      0.000000E+00     501
-CONT-                  0.000000E+00      0.000000E+00     -9.082612E-13     502
      7021       G     -4.668447E-11      5.288187E+00      0.000000E+00     503
-CONT-                  0.000000E+00      0.000000E+00      3.535263E-12     504
      7022       G     -9.502750E-11      5.288187E+00      0.000000E+00     505
-CONT-                  0.000000E+00      0.000000E+00      3.535263E-12     506
      8011       G     -1.180247E-11      5.288187E+00      0.000000E+00     507
-CONT-                  0.000000E+00      0.000000E+00     -9.013189E-13     508
      8012       G     -2.412757E-11      5.288187E+00      0.000000E+00     509
-CONT-                  0.000000E+00      0.000000E+00     -9.013189E-13     510
      8021       G     -9.560433E-11      5.288187E+00      0.000000E+00     511
-CONT-                  0.000000E+00      0.000000E+00      3.580709E-12     512
      8022       G     -1.445688E-10      5.288187E+00      0.000000E+00     513
-CONT-                  0.000000E+00      0.000000E+00      3.580709E-12     514
      9001       G      1.185646E-11      5.288187E+00      0.000000E+00     515
-CONT-                  0.000000E+00      0.000000E+00      1.918465E-13     516
      9002       G      1.185639E-11      5.288187E+00      0.000000E+00     517
-CONT-                  0.000000E+00      0.000000E+00      1.330055E-13     518
      9003       G     -2.441827E-11      5.288187E+00      0.000000E+00     519
-CONT-                  0.000000E+00      0.000000E+00     -9.007501E-13     520
      9004       G     -2.441827E-11      5.288187E+00      0.000000E+00     521
-CONT-                  0.000000E+00      0.000000E+00     -9.007501E-13     522
      9005       G     -1.457752E-10      5.288187E+00      0.000000E+00     523
-CONT-                  0.000000E+00      0.000000E+00      3.581571E-12     524
      9006       G     -1.457752E-10      5.288187E+00      0.000000E+00     525
-CONT-                  0.000000E+00      0.000000E+00      3.581571E-12     526
     10001       G      1.263634E-11      5.288187E+00      0.000000E+00     527
-CONT-                  0.000000E+00      0.000000E+00      2.495318E-14     528
     10002       G      7.714118E-12      5.288187E+00      0.000000E+00     529
-CONT-                  0.000000E+00      0.000000E+00     -7.883742E-13     530
     10003       G     -4.069950E-12      5.288187E+00      0.000000E+00     531
-CONT-                  0.000000E+00      0.000000E+00     -9.082612E-13     532
     10004       G     -1.662756E-11      5.288187E+00      0.000000E+00     533
-CONT-                  0.000000E+00      0.000000E+00     -9.013189E-13     534
     10011       G      1.262038E-11      5.288187E+00      0.000000E+00     535
-CONT-                  0.000000E+00      0.000000E+00      2.495318E-14     536
     10012       G      7.412686E-12      5.288187E+00      0.000000E+00     537
-CONT-                  0.000000E+00      0.000000E+00     -7.883742E-13     538
     10013       G     -4.417219E-12      5.288187E+00      0.000000E+00     539
-CONT-                  0.000000E+00      0.000000E+00     -9.082612E-13     540
     10014       G     -1.697217E-11      5.288187E+00      0.000000E+00     541
-CONT-                  0.000000E+00      0.000000E+00     -9.013189E-13     542
     10101       G      1.262018E-11      5.288187E+00      0.000000E+00     543
-CONT-                  0.000000E+00      0.000000E+00      2.495318E-14     544
     10102       G      7.406776E-12      5.288187E+00      0.000000E+00     545
-CONT-                  0.000000E+00      0.000000E+00     -7.883742E-13     546
     10103       G     -4.424028E-12      5.288187E+00      0.000000E+00     547
-CONT-                  0.000000E+00      0.000000E+00     -9.082612E-13     548
     10104       G     -1.697893E-11      5.288187E+00      0.000000E+00     549
-CONT-                  0.000000E+00      0.000000E+00     -9.013189E-13     550
     13001       G      1.185646E-11      5.288187E+00      0.000000E+00     551
-CONT-                  0.000000E+00      0.000000E+00      1.905143E-13     552
     13002       G      1.185641E-11      5.288187E+00      0.000000E+00     553
-CONT-                  0.000000E+00      0.000000E+00      3.366599E-13     554
     18888       G      1.185638E-11      5.288187E+00      0.000000E+00     555
-CONT-                  0.000000E+00      0.000000E+00      3.509672E-14     556
     20001       G      1.077552E-11      5.288187E+00      0.000000E+00     557
-CONT-                  0.000000E+00      0.000000E+00      2.763591E-14     558
     20002       G     -1.886365E-11      5.288187E+00      0.000000E+00     559
-CONT-                  0.000000E+00      0.000000E+00      3.166615E-12     560
     20003       G     -6.561003E-11      5.288187E+00      0.000000E+00     561
-CONT-                  0.000000E+00      0.000000E+00      3.535263E-12     562
     20004       G     -1.147732E-10      5.288187E+00      0.000000E+00     563
-CONT-                  0.000000E+00      0.000000E+00      3.580709E-12     564
     20021       G      1.079320E-11      5.288187E+00      0.000000E+00     565
-CONT-                  0.000000E+00      0.000000E+00      2.763591E-14     566
     20022       G     -2.007439E-11      5.288187E+00      0.000000E+00     567
-CONT-                  0.000000E+00      0.000000E+00      3.166615E-12     568
     20023       G     -6.696172E-11      5.288187E+00      0.000000E+00     569
-CONT-                  0.000000E+00      0.000000E+00      3.535263E-12     570
     20024       G     -1.161422E-10      5.288187E+00      0.000000E+00     571
-CONT-                  0.000000E+00      0.000000E+00      3.580709E-12     572
     20201       G      1.079342E-11      5.288187E+00      0.000000E+00     573
-CONT-                  0.000000E+00      0.000000E+00      2.763591E-14     574
     20202       G     -2.009813E-11      5.288187E+00      0.000000E+00     575
-CONT-                  0.000000E+00      0.000000E+00      3.166615E-12     576
     20203       G     -6.698822E-11      5.288187E+00      0.000000E+00     577
-CONT-                  0.000000E+00      0.000000E+00      3.535263E-12     578
     20204       G     -1.161691E-10      5.288187E+00      0.000000E+00     579
-CONT-                  0.000000E+00      0.000000E+00      3.580709E-12     580
     28888       G      1.185643E-11      5.288187E+00      0.000000E+00     581
-CONT-                  0.000000E+00      0.000000E+00      3.259615E-13     582
    100001       G      1.260324E-11      5.288187E+00      0.000000E+00     583
-CONT-                  0.000000E+00      0.000000E+00      2.495318E-14     584
    101001       G      1.258705E-11      5.288187E+00      0.000000E+00     585
-CONT-                  0.000000E+00      0.000000E+00      2.495318E-14     586
    200001       G      1.081217E-11      5.288187E+00      0.000000E+00     587
-CONT-                  0.000000E+00      0.000000E+00      2.763591E-14     588
    202002       G      1.083011E-11      5.288187E+00      0.000000E+00     589
-CONT-                  0.000000E+00      0.000000E+00      2.763591E-14     590
    888011       G      0.000000E+00      0.000000E+00      0.000000E+00     591
-CONT-                  0.000000E+00      0.000000E+00      0.000000E+00     592
    888012       G      0.000000E+00      0.000000E+00      0.000000E+00     593
-CONT-                  0.000000E+00      0.000000E+00      0.000000E+00     594
    888013       G      0.000000E+00      0.000000E+00      0.000000E+00     595
-CONT-                  0.000000E+00      0.000000E+00      0.000000E+00     596
    888014       G      0.000000E+00      0.000000E+00      0.000000E+00     597
-CONT-                  0.000000E+00      0.000000E+00      0.000000E+00     598
    888015       G      0.000000E+00      0.000000E+00      0.000000E+00     599
-CONT-                  0.000000E+00      0.000000E+00      0.000000E+00     600
    888016       G      0.000000E+00      0.000000E+00      0.000000E+00     601
-CONT-                  0.000000E+00      0.000000E+00      0.000000E+00     602
    888017       G      0.000000E+00      0.000000E+00      0.000000E+00     603
-CONT-                  0.000000E+00      0.000000E+00      0.000000E+00     604
    888021       G      0.000000E+00      0.000000E+00      0.000000E+00     605
-CONT-                  0.000000E+00      0.000000E+00      0.000000E+00     606
    888022       G      0.000000E+00      0.000000E+00      0.000000E+00     607
-CONT-                  0.000000E+00      0.000000E+00      0.000000E+00     608
    888023       G      0.000000E+00      0.000000E+00      0.000000E+00     609
-CONT-                  0.000000E+00      0.000000E+00      0.000000E+00     610
    888024       G      0.000000E+00      0.000000E+00      0.000000E+00     611
-CONT-                  0.000000E+00      0.000000E+00      0.000000E+00     612
    888025       G      0.000000E+00      0.000000E+00      0.000000E+00     613
-CONT-                  0.000000E+00      0.000000E+00      0.000000E+00     614
    888026       G      0.000000E+00      0.000000E+00      0.000000E+00     615
-CONT-                  0.000000E+00      0.000000E+00      0.000000E+00     616
    888027       G      0.000000E+00      0.000000E+00      0.000000E+00     617
-CONT-                  0.000000E+00      0.000000E+00      0.000000E+00     618
    999011       G      1.264151E-11      5.288187E+00      0.000000E+00     619
-CONT-                  0.000000E+00      0.000000E+00      1.908015E-13     620
    999012       G      1.304011E-11      5.288187E+00      0.000000E+00     621
-CONT-                  0.000000E+00      0.000000E+00     -1.875229E-13     622
    999013       G      9.414236E-12      5.288187E+00      0.000000E+00     623
-CONT-                  0.000000E+00      0.000000E+00     -6.644984E-13     624
    999014       G      3.855882E-12      5.288187E+00      0.000000E+00     625
-CONT-                  0.000000E+00      0.000000E+00     -8.402265E-13     626
    999015       G     -2.412069E-12      5.288187E+00      0.000000E+00     627
-CONT-                  0.000000E+00      0.000000E+00     -8.964561E-13     628
    999016       G     -8.640814E-12      5.288187E+00      0.000000E+00     629
-CONT-                  0.000000E+00      0.000000E+00     -9.127978E-13     630
    999017       G     -1.493096E-11      5.288187E+00      0.000000E+00     631
-CONT-                  0.000000E+00      0.000000E+00     -9.060719E-13     632
    999018       G     -2.303537E-11      5.288187E+00      0.000000E+00     633
-CONT-                  0.000000E+00      0.000000E+00     -9.002868E-13     634
    999021       G      1.092207E-11      5.288187E+00      0.000000E+00     635
-CONT-                  0.000000E+00      0.000000E+00      2.669288E-13     636
    999022       G      5.734544E-12      5.288187E+00      0.000000E+00     637
-CONT-                  0.000000E+00      0.000000E+00      1.363982E-12     638
    999023       G     -1.167368E-11      5.288187E+00      0.000000E+00     639
-CONT-                  0.000000E+00      0.000000E+00      2.787537E-12     640
    999024       G     -3.440383E-11      5.288187E+00      0.000000E+00     641
-CONT-                  0.000000E+00      0.000000E+00      3.332751E-12     642
    999025       G     -5.913096E-11      5.288187E+00      0.000000E+00     643
-CONT-                  0.000000E+00      0.000000E+00      3.497454E-12     644
    999026       G     -8.341412E-11      5.288187E+00      0.000000E+00     645
-CONT-                  0.000000E+00      0.000000E+00      3.557406E-12     646
    999027       G     -1.080569E-10      5.288187E+00      0.000000E+00     647
-CONT-                  0.000000E+00      0.000000E+00      3.578053E-12     648
    999028       G     -1.402794E-10      5.288187E+00      0.000000E+00     649
-CONT-                  0.000000E+00      0.000000E+00      3.580805E-12     650
$TITLE   = MSC.NASTRAN JOB CREATED ON 20-FEB-15 AT 15:37:03                  651
$SUBTITLE=DEFAULT                                                            652
$LABEL   =                                                                   653
$EIGENVECTOR                                                                 654
$REAL OUTPUT                                                                 655
$SUBCASE ID =           1                                                    656
$EIGENVALUE =  0.0000000E+00  MODE =     3                                   657
         1       G      0.000000E+00      0.000000E+00      5.288187E+00     658
-CONT-                 -1.001721E-11     -2.838092E-12      0.000000E+00     659
         2       G      0.000000E+00      0.000000E+00      5.288187E+00     660
-CONT-                 -1.001721E-11     -2.838092E-12      0.000000E+00     661
         3       G      0.000000E+00      0.000000E+00      5.288187E+00     662
-CONT-                 -1.138860E-11     -3.573792E-12      0.000000E+00     663
         4       G      0.000000E+00      0.000000E+00      5.288187E+00     664
-CONT-                 -1.138860E-11     -3.573792E-12      0.000000E+00     665
         5       G      0.000000E+00      0.000000E+00      5.288187E+00     666
-CONT-                 -1.166796E-11     -3.731389E-12      0.000000E+00     667
         6       G      0.000000E+00      0.000000E+00      5.288187E+00     668
-CONT-                 -1.166796E-11     -3.731389E-12      0.000000E+00     669
         7       G      0.000000E+00      0.000000E+00      5.288187E+00     670
-CONT-                 -1.156912E-11     -3.785389E-12      0.000000E+00     671
         8       G      0.000000E+00      0.000000E+00      5.288187E+00     672
-CONT-                 -1.156912E-11     -3.785389E-12      0.000000E+00     673
         9       G      0.000000E+00      0.000000E+00      5.288187E+00     674
-CONT-                 -1.150085E-11     -3.804341E-12      0.000000E+00     675
        10       G      0.000000E+00      0.000000E+00      5.288187E+00     676
-CONT-                 -1.150085E-11     -3.804341E-12      0.000000E+00     677
        11       G      0.000000E+00      0.000000E+00      5.288187E+00     678
-CONT-                  6.312888E-12     -1.307232E-12      0.000000E+00     679
        12       G      0.000000E+00      0.000000E+00      5.288187E+00     680
-CONT-                  6.312888E-12     -1.307232E-12      0.000000E+00     681
        13       G      0.000000E+00      0.000000E+00      5.288187E+00     682
-CONT-                  7.308084E-12     -1.271563E-12      0.000000E+00     683
        14       G      0.000000E+00      0.000000E+00      5.288187E+00     684
-CONT-                  7.308084E-12     -1.271563E-12      0.000000E+00     685
        15       G      0.000000E+00      0.000000E+00      5.288187E+00     686
-CONT-                  7.809822E-12     -8.082349E-13      0.000000E+00     687
        16       G      0.000000E+00      0.000000E+00      5.288187E+00     688
-CONT-                  7.809822E-12     -8.082349E-13      0.000000E+00     689
        17       G      0.000000E+00      0.000000E+00      5.288187E+00     690
-CONT-                  7.920179E-12     -7.913465E-13      0.000000E+00     691
        18       G      0.000000E+00      0.000000E+00      5.288187E+00     692
-CONT-                  7.920179E-12     -7.913465E-13      0.000000E+00     693
        19       G      0.000000E+00      0.000000E+00      5.288187E+00     694
-CONT-                  7.843122E-12     -7.346540E-13      0.000000E+00     695
        20       G      0.000000E+00      0.000000E+00      5.288187E+00     696
-CONT-                  7.843122E-12     -7.346540E-13      0.000000E+00     697
       101       G      0.000000E+00      0.000000E+00      5.288187E+00     698
-CONT-                 -1.001721E-11     -2.838092E-12      0.000000E+00     699
       102       G      0.000000E+00      0.000000E+00      5.288187E+00     700
-CONT-                 -1.138860E-11     -3.573792E-12      0.000000E+00     701
       103       G      0.000000E+00      0.000000E+00      5.288187E+00     702
-CONT-                 -1.166796E-11     -3.731389E-12      0.000000E+00     703
       104       G      0.000000E+00      0.000000E+00      5.288187E+00     704
-CONT-                 -1.156912E-11     -3.785389E-12      0.000000E+00     705
       105       G      0.000000E+00      0.000000E+00      5.288187E+00     706
-CONT-                 -1.150085E-11     -3.804341E-12      0.000000E+00     707
       201       G      0.000000E+00      0.000000E+00      5.288187E+00     708
-CONT-                  6.312888E-12     -1.307232E-12      0.000000E+00     709
       202       G      0.000000E+00      0.000000E+00      5.288187E+00     710
-CONT-                  7.308084E-12     -1.271563E-12      0.000000E+00     711
       203       G      0.000000E+00      0.000000E+00      5.288187E+00     712
-CONT-                  7.809822E-12     -8.082349E-13      0.000000E+00     713
       204       G      0.000000E+00      0.000000E+00      5.288187E+00     714
-CONT-                  7.920179E-12     -7.913465E-13      0.000000E+00     715
       205       G      0.000000E+00      0.000000E+00      5.288187E+00     716
-CONT-                  7.843122E-12     -7.346540E-13      0.000000E+00     717
      1000       G      0.000000E+00      0.000000E+00      0.000000E+00     718
-CONT-                  0.000000E+00      0.000000E+00      0.000000E+00     719
      1010       G      0.000000E+00      0.000000E+00      5.288187E+00     720
-CONT-                 -2.216517E-13     -2.465665E-14      0.000000E+00     721
      1011       G      0.000000E+00      0.000000E+00      5.288187E+00     722
-CONT-                 -1.969560E-14     -5.687597E-14      0.000000E+00     723
      1012       G      0.000000E+00      0.000000E+00      5.288187E+00     724
-CONT-                 -2.800857E-15      7.742476E-14      0.000000E+00     725
      1013       G      0.000000E+00      0.000000E+00      5.288187E+00     726
-CONT-                 -2.216517E-13     -2.465665E-14      0.000000E+00     727
      1020       G      0.000000E+00      0.000000E+00      5.288187E+00     728
-CONT-                 -9.481406E-12     -2.584453E-12      0.000000E+00     729
      1030       G      0.000000E+00      0.000000E+00      5.288187E+00     730
-CONT-                 -1.111628E-11     -3.386432E-12      0.000000E+00     731
      1040       G      0.000000E+00      0.000000E+00      5.288187E+00     732
-CONT-                 -1.154333E-11     -3.650992E-12      0.000000E+00     733
      1050       G      0.000000E+00      0.000000E+00      5.288187E+00     734
-CONT-                 -1.166366E-11     -3.737655E-12      0.000000E+00     735
      1060       G      0.000000E+00      0.000000E+00      5.288187E+00     736
-CONT-                 -1.158369E-11     -3.783939E-12      0.000000E+00     737
      1070       G      0.000000E+00      0.000000E+00      5.288187E+00     738
-CONT-                 -1.152079E-11     -3.800195E-12      0.000000E+00     739
      1080       G      0.000000E+00      0.000000E+00      5.288187E+00     740
-CONT-                 -1.149392E-11     -3.806383E-12      0.000000E+00     741
      1090       G      0.000000E+00      0.000000E+00      5.288187E+00     742
-CONT-                 -1.149379E-11     -3.807153E-12      0.000000E+00     743
      1091       G      0.000000E+00      0.000000E+00      5.288187E+00     744
-CONT-                 -1.149379E-11     -3.807153E-12      0.000000E+00     745
      1092       G      0.000000E+00      0.000000E+00      5.288187E+00     746
-CONT-                 -1.149379E-11     -3.807153E-12      0.000000E+00     747
      2000       G      0.000000E+00      0.000000E+00      0.000000E+00     748
-CONT-                  0.000000E+00      0.000000E+00      0.000000E+00     749
      2010       G      0.000000E+00      0.000000E+00      5.288187E+00     750
-CONT-                  4.806952E-14     -3.052955E-14      0.000000E+00     751
      2011       G      0.000000E+00      0.000000E+00      5.288187E+00     752
-CONT-                 -2.036063E-14     -3.814060E-14      0.000000E+00     753
      2012       G      0.000000E+00      0.000000E+00      5.288187E+00     754
-CONT-                 -2.417495E-16      3.576991E-15      0.000000E+00     755
      2013       G      0.000000E+00      0.000000E+00      5.288187E+00     756
-CONT-                  4.806952E-14     -3.052955E-14      0.000000E+00     757
      2020       G      0.000000E+00      0.000000E+00      5.288187E+00     758
-CONT-                  6.004304E-12     -1.263573E-12      0.000000E+00     759
      2030       G      0.000000E+00      0.000000E+00      5.288187E+00     760
-CONT-                  7.052766E-12     -1.351666E-12      0.000000E+00     761
      2040       G      0.000000E+00      0.000000E+00      5.288187E+00     762
-CONT-                  7.479887E-12     -1.115393E-12      0.000000E+00     763
      2050       G      0.000000E+00      0.000000E+00      5.288187E+00     764
-CONT-                  7.868252E-12     -7.557165E-13      0.000000E+00     765
      2060       G      0.000000E+00      0.000000E+00      5.288187E+00     766
-CONT-                  7.931665E-12     -7.947957E-13      0.000000E+00     767
      2070       G      0.000000E+00      0.000000E+00      5.288187E+00     768
-CONT-                  7.870019E-12     -7.406351E-13      0.000000E+00     769
      2080       G      0.000000E+00      0.000000E+00      5.288187E+00     770
-CONT-                  7.835875E-12     -7.274482E-13      0.000000E+00     771
      2090       G      0.000000E+00      0.000000E+00      5.288187E+00     772
-CONT-                  7.835569E-12     -7.266910E-13      0.000000E+00     773
      2091       G      0.000000E+00      0.000000E+00      5.288187E+00     774
-CONT-                  7.835569E-12     -7.266910E-13      0.000000E+00     775
      2092       G      0.000000E+00      0.000000E+00      5.288187E+00     776
-CONT-                  7.835569E-12     -7.266910E-13      0.000000E+00     777
      3000       G      0.000000E+00      0.000000E+00      5.288187E+00     778
-CONT-                 -1.996163E-14     -2.340629E-14      0.000000E+00     779
      3001       G      0.000000E+00      0.000000E+00      5.288187E+00     780
-CONT-                 -1.996163E-14     -4.823919E-14      0.000000E+00     781
      3002       G      0.000000E+00      0.000000E+00      5.288187E+00     782
-CONT-                 -1.996163E-14     -4.336768E-14      0.000000E+00     783
      3004       G      0.000000E+00      0.000000E+00      5.288187E+00     784
-CONT-                 -1.088152E-14     -9.160266E-15      0.000000E+00     785
      3005       G      0.000000E+00      0.000000E+00      5.288187E+00     786
-CONT-                 -2.561558E-15     -3.029777E-16      0.000000E+00     787
      3006       G      0.000000E+00      0.000000E+00      5.288187E+00     788
-CONT-                 -2.558089E-15      3.720751E-15      0.000000E+00     789
      3007       G      0.000000E+00      0.000000E+00      5.288187E+00     790
-CONT-                 -2.558089E-15      3.552714E-15      0.000000E+00     791
      3011       G     -2.093934E-11      6.321584E-11      5.288187E+00     792
-CONT-                 -1.149379E-11     -3.807153E-12      0.000000E+00     793
      3012       G     -2.093934E-11      6.321584E-11      5.288187E+00     794
-CONT-                 -1.149379E-11     -3.807153E-12      0.000000E+00     795
      3013       G      2.093934E-11     -6.321584E-11      5.288187E+00     796
-CONT-                 -1.149379E-11     -3.807153E-12      0.000000E+00     797
      3014       G      2.093934E-11     -6.321584E-11      5.288187E+00     798
-CONT-                 -1.149379E-11     -3.807153E-12      0.000000E+00     799
      4011       G     -3.996800E-12     -4.309563E-11      5.288187E+00     800
-CONT-                  7.835569E-12     -7.266910E-13      0.000000E+00     801
      4012       G     -3.996800E-12     -4.309563E-11      5.288187E+00     802
-CONT-                  7.835569E-12     -7.266910E-13      0.000000E+00     803
      4013       G      3.996800E-12      4.309563E-11      5.288187E+00     804
-CONT-                  7.835569E-12     -7.266910E-13      0.000000E+00     805
      4014       G      3.996800E-12      4.309563E-11      5.288187E+00     806
-CONT-                  7.835569E-12     -7.266910E-13      0.000000E+00     807
      5011       G      0.000000E+00      0.000000E+00      5.288187E+00     808
-CONT-                 -2.353014E-15      4.243346E-14      0.000000E+00     809
      5012       G      0.000000E+00      0.000000E+00      5.288187E+00     810
-CONT-                 -2.353014E-15      4.243346E-14      0.000000E+00     811
      5021       G      0.000000E+00      0.000000E+00      5.288187E+00     812
-CONT-                 -3.394211E-16      1.830315E-15      0.000000E+00     813
      5022       G      0.000000E+00      0.000000E+00      5.288187E+00     814
-CONT-                 -3.394211E-16      1.830315E-15      0.000000E+00     815
      6011       G      0.000000E+00      0.000000E+00      5.288187E+00     816
-CONT-                 -1.111628E-11     -3.386432E-12      0.000000E+00     817
      6012       G      0.000000E+00      0.000000E+00      5.288187E+00     818
-CONT-                 -1.111628E-11     -3.386432E-12      0.000000E+00     819
      6021       G      0.000000E+00      0.000000E+00      5.288187E+00     820
-CONT-                  7.052769E-12     -1.351666E-12      0.000000E+00     821
      6022       G      0.000000E+00      0.000000E+00      5.288187E+00     822
-CONT-                  7.052769E-12     -1.351666E-12      0.000000E+00     823
      7011       G      0.000000E+00      0.000000E+00      5.288187E+00     824
-CONT-                 -1.166366E-11     -3.737655E-12      0.000000E+00     825
      7012       G      0.000000E+00      0.000000E+00      5.288187E+00     826
-CONT-                 -1.166366E-11     -3.737655E-12      0.000000E+00     827
      7021       G      0.000000E+00      0.000000E+00      5.288187E+00     828
-CONT-                  7.868252E-12     -7.557165E-13      0.000000E+00     829
      7022       G      0.000000E+00      0.000000E+00      5.288187E+00     830
-CONT-                  7.868252E-12     -7.557165E-13      0.000000E+00     831
      8011       G      0.000000E+00      0.000000E+00      5.288187E+00     832
-CONT-                 -1.152079E-11     -3.800185E-12      0.000000E+00     833
      8012       G      0.000000E+00      0.000000E+00      5.288187E+00     834
-CONT-                 -1.152079E-11     -3.800185E-12      0.000000E+00     835
      8021       G      0.000000E+00      0.000000E+00      5.288187E+00     836
-CONT-                  7.870019E-12     -7.406255E-13      0.000000E+00     837
      8022       G      0.000000E+00      0.000000E+00      5.288187E+00     838
-CONT-                  7.870019E-12     -7.406255E-13      0.000000E+00     839
      9001       G      0.000000E+00      0.000000E+00      5.288187E+00     840
-CONT-                 -1.996163E-14     -4.796163E-14      0.000000E+00     841
      9002       G      0.000000E+00      0.000000E+00      5.288187E+00     842
-CONT-                 -4.753697E-15     -6.661338E-16      0.000000E+00     843
      9003       G      0.000000E+00      0.000000E+00      5.288187E+00     844
-CONT-                 -1.149392E-11     -3.806383E-12      0.000000E+00     845
      9004       G      0.000000E+00      0.000000E+00      5.288187E+00     846
-CONT-                 -1.149392E-11     -3.806383E-12      0.000000E+00     847
      9005       G      0.000000E+00      0.000000E+00      5.288187E+00     848
-CONT-                  7.835875E-12     -7.274482E-13      0.000000E+00     849
      9006       G      0.000000E+00      0.000000E+00      5.288187E+00     850
-CONT-                  7.835875E-12     -7.274482E-13      0.000000E+00     851
     10001       G      0.000000E+00      0.000000E+00      5.288187E+00     852
-CONT-                 -2.353014E-15      4.243346E-14      0.000000E+00     853
     10002       G      0.000000E+00      0.000000E+00      5.288187E+00     854
-CONT-                 -1.111628E-11     -3.386432E-12      0.000000E+00     855
     10003       G      0.000000E+00      0.000000E+00      5.288187E+00     856
-CONT-                 -1.166366E-11     -3.737655E-12      0.000000E+00     857
     10004       G      0.000000E+00      0.000000E+00      5.288187E+00     858
-CONT-                 -1.152079E-11     -3.800185E-12      0.000000E+00     859
     10011       G      0.000000E+00      0.000000E+00      5.288187E+00     860
-CONT-                 -2.353014E-15      4.243346E-14      0.000000E+00     861
     10012       G      0.000000E+00      0.000000E+00      5.288187E+00     862
-CONT-                 -1.111628E-11     -3.386432E-12      0.000000E+00     863
     10013       G      0.000000E+00      0.000000E+00      5.288187E+00     864
-CONT-                 -1.166366E-11     -3.737655E-12      0.000000E+00     865
     10014       G      0.000000E+00      0.000000E+00      5.288187E+00     866
-CONT-                 -1.152079E-11     -3.800185E-12      0.000000E+00     867
     10101       G      0.000000E+00      0.000000E+00      5.288187E+00     868
-CONT-                 -2.353014E-15      4.243346E-14      0.000000E+00     869
     10102       G      0.000000E+00      0.000000E+00      5.288187E+00     870
-CONT-                 -1.111628E-11     -3.386432E-12      0.000000E+00     871
     10103       G      0.000000E+00      0.000000E+00      5.288187E+00     872
-CONT-                 -1.166366E-11     -3.737655E-12      0.000000E+00     873
     10104       G      0.000000E+00      0.000000E+00      5.288187E+00     874
-CONT-                 -1.152079E-11     -3.800195E-12      0.000000E+00     875
     13001       G      0.000000E+00      0.000000E+00      5.288187E+00     876
-CONT-                 -1.996163E-14     -4.773959E-14      0.000000E+00     877
     13002       G      0.000000E+00      0.000000E+00      5.288187E+00     878
-CONT-                 -8.601933E-15     -4.239664E-15      0.000000E+00     879
     18888       G      0.000000E+00      0.000000E+00      5.288187E+00     880
-CONT-                 -3.335423E-15     -6.661338E-16      0.000000E+00     881
     20001       G      0.000000E+00      0.000000E+00      5.288187E+00     882
-CONT-                 -3.394211E-16      1.830315E-15      0.000000E+00     883
     20002       G      0.000000E+00      0.000000E+00      5.288187E+00     884
-CONT-                  7.052769E-12     -1.351666E-12      0.000000E+00     885
     20003       G      0.000000E+00      0.000000E+00      5.288187E+00     886
-CONT-                  7.868252E-12     -7.557165E-13      0.000000E+00     887
     20004       G      0.000000E+00      0.000000E+00      5.288187E+00     888
-CONT-                  7.870019E-12     -7.406255E-13      0.000000E+00     889
     20021       G      0.000000E+00      0.000000E+00      5.288187E+00     890
-CONT-                 -3.394211E-16      1.830315E-15      0.000000E+00     891
     20022       G      0.000000E+00      0.000000E+00      5.288187E+00     892
-CONT-                  7.052769E-12     -1.351666E-12      0.000000E+00     893
     20023       G      0.000000E+00      0.000000E+00      5.288187E+00     894
-CONT-                  7.868252E-12     -7.557165E-13      0.000000E+00     895
     20024       G      0.000000E+00      0.000000E+00      5.288187E+00     896
-CONT-                  7.870019E-12     -7.406255E-13      0.000000E+00     897
     20201       G      0.000000E+00      0.000000E+00      5.288187E+00     898
-CONT-                 -3.394211E-16      1.830315E-15      0.000000E+00     899
     20202       G      0.000000E+00      0.000000E+00      5.288187E+00     900
-CONT-                  7.052766E-12     -1.351666E-12      0.000000E+00     901
     20203       G      0.000000E+00      0.000000E+00      5.288187E+00     902
-CONT-                  7.868252E-12     -7.557165E-13      0.000000E+00     903
     20204       G      0.000000E+00      0.000000E+00      5.288187E+00     904
-CONT-                  7.870019E-12     -7.406351E-13      0.000000E+00     905
     28888       G      0.000000E+00      0.000000E+00      5.288187E+00     906
-CONT-                 -1.149011E-14     -1.015854E-14      0.000000E+00     907
    100001       G      0.000000E+00      0.000000E+00      5.288187E+00     908
-CONT-                 -2.353014E-15      4.243346E-14      0.000000E+00     909
    101001       G      0.000000E+00      0.000000E+00      5.288187E+00     910
-CONT-                 -2.353014E-15      4.243346E-14      0.000000E+00     911
    200001       G      0.000000E+00      0.000000E+00      5.288187E+00     912
-CONT-                 -3.394211E-16      1.830315E-15      0.000000E+00     913
    202002       G      0.000000E+00      0.000000E+00      5.288187E+00     914
-CONT-                 -3.394211E-16      1.830315E-15      0.000000E+00     915
    888011       G      0.000000E+00      0.000000E+00      0.000000E+00     916
-CONT-                  0.000000E+00      0.000000E+00      0.000000E+00     917
    888012       G      0.000000E+00      0.000000E+00      0.000000E+00     918
-CONT-                  0.000000E+00      0.000000E+00      0.000000E+00     919
    888013       G      0.000000E+00      0.000000E+00      0.000000E+00     920
-CONT-                  0.000000E+00      0.000000E+00      0.000000E+00     921
    888014       G      0.000000E+00      0.000000E+00      0.000000E+00     922
-CONT-                  0.000000E+00      0.000000E+00      0.000000E+00     923
    888015       G      0.000000E+00      0.000000E+00      0.000000E+00     924
-CONT-                  0.000000E+00      0.000000E+00      0.000000E+00     925
    888016       G      0.000000E+00      0.000000E+00      0.000000E+00     926
-CONT-                  0.000000E+00      0.000000E+00      0.000000E+00     927
    888017       G      0.000000E+00      0.000000E+00      0.000000E+00     928
-CONT-                  0.000000E+00      0.000000E+00      0.000000E+00     929
    888021       G      0.000000E+00      0.000000E+00      0.000000E+00     930
-CONT-                  0.000000E+00      0.000000E+00      0.000000E+00     931
    888022       G      0.000000E+00      0.000000E+00      0.000000E+00     932
-CONT-                  0.000000E+00      0.000000E+00      0.000000E+00     933
    888023       G      0.000000E+00      0.000000E+00      0.000000E+00     934
-CONT-                  0.000000E+00      0.000000E+00      0.000000E+00     935
    888024       G      0.000000E+00      0.000000E+00      0.000000E+00     936
-CONT-                  0.000000E+00      0.000000E+00      0.000000E+00     937
    888025       G      0.000000E+00      0.000000E+00      0.000000E+00     938
-CONT-                  0.000000E+00      0.000000E+00      0.000000E+00     939
    888026       G      0.000000E+00      0.000000E+00      0.000000E+00     940
-CONT-                  0.000000E+00      0.000000E+00      0.000000E+00     941
    888027       G      0.000000E+00      0.000000E+00      0.000000E+00     942
-CONT-                  0.000000E+00      0.000000E+00      0.000000E+00     943
    999011       G      0.000000E+00      0.000000E+00      5.288187E+00     944
-CONT-                 -5.759924E-14      1.633188E-15      0.000000E+00     945
    999012       G      0.000000E+00      0.000000E+00      5.288187E+00     946
-CONT-                 -5.335946E-12     -1.474936E-12      0.000000E+00     947
    999013       G      0.000000E+00      0.000000E+00      5.288187E+00     948
-CONT-                 -1.047463E-11     -3.061889E-12      0.000000E+00     949
    999014       G      0.000000E+00      0.000000E+00      5.288187E+00     950
-CONT-                 -1.138326E-11     -3.569654E-12      0.000000E+00     951
    999015       G      0.000000E+00      0.000000E+00      5.288187E+00     952
-CONT-                 -1.165097E-11     -3.713692E-12      0.000000E+00     953
    999016       G      0.000000E+00      0.000000E+00      5.288187E+00     954
-CONT-                 -1.163507E-11     -3.765130E-12      0.000000E+00     955
    999017       G      0.000000E+00      0.000000E+00      5.288187E+00     956
-CONT-                 -1.154564E-11     -3.789511E-12      0.000000E+00     957
    999018       G      0.000000E+00      0.000000E+00      5.288187E+00     958
-CONT-                 -1.149410E-11     -3.806066E-12      0.000000E+00     959
    999021       G      0.000000E+00      0.000000E+00      5.288187E+00     960
-CONT-                 -6.839395E-15     -2.060160E-14      0.000000E+00     961
    999022       G      0.000000E+00      0.000000E+00      5.288187E+00     962
-CONT-                  3.221852E-12     -7.183411E-13      0.000000E+00     963
    999023       G      0.000000E+00      0.000000E+00      5.288187E+00     964
-CONT-                  6.597190E-12     -1.341823E-12      0.000000E+00     965
    999024       G      0.000000E+00      0.000000E+00      5.288187E+00     966
-CONT-                  7.303101E-12     -1.274235E-12      0.000000E+00     967
    999025       G      0.000000E+00      0.000000E+00      5.288187E+00     968
-CONT-                  7.694064E-12     -9.161247E-13      0.000000E+00     969
    999026       G      0.000000E+00      0.000000E+00      5.288187E+00     970
-CONT-                  7.930994E-12     -7.880682E-13      0.000000E+00     971
    999027       G      0.000000E+00      0.000000E+00      5.288187E+00     972
-CONT-                  7.900561E-12     -7.704314E-13      0.000000E+00     973
    999028       G      0.000000E+00      0.000000E+00      5.288187E+00     974
-CONT-                  7.836994E-12     -7.310763E-13      0.000000E+00     975
$TITLE   = MSC.NASTRAN JOB CREATED ON 20-FEB-15 AT 15:37:03                  976
$SUBTITLE=DEFAULT                                                            977
$LABEL   =                                                                   978
$EIGENVECTOR                                                                 979
$REAL OUTPUT                                                                 980
$SUBCASE ID =           1                                                    981
$EIGENVALUE =  0.0000000E+00  MODE =     4                                   982
         1       G      0.000000E+00      0.000000E+00     -3.690888E+00     983
-CONT-                  2.065410E-01      3.429899E-12      0.000000E+00     984
         2       G      0.000000E+00      0.000000E+00     -3.304656E+00     985
-CONT-                  2.065410E-01      3.429899E-12      0.000000E+00     986
         3       G      0.000000E+00      0.000000E+00     -5.605523E+00     987
[...]
      1030       G      0.000000E+00      0.000000E+00     -6.644923E+00    6255
-CONT-                  4.874076E-01      1.200004E-01      0.000000E+00    6256
      1040       G      0.000000E+00      0.000000E+00     -7.431466E+00    6257
-CONT-                 -3.414241E-01     -3.623066E-02      0.000000E+00    6258
      1050       G      0.000000E+00      0.000000E+00     -2.223418E+00    6259
-CONT-                 -9.246212E-01     -1.608011E-01      0.000000E+00    6260
      1060       G      0.000000E+00      0.000000E+00      4.108749E+00    6261
-CONT-                 -6.147225E-01     -1.302563E-01      0.000000E+00    6262
      1070       G      0.000000E+00      0.000000E+00      5.698542E+00    6263
-CONT-                  2.947221E-01      5.347204E-02      0.000000E+00    6264
      1080       G      0.000000E+00      0.000000E+00     -3.152272E-01    6265
-CONT-                  1.113277E+00      3.275526E-01      0.000000E+00    6266
      1090       G      0.000000E+00      0.000000E+00     -3.760492E+00    6267
-CONT-                  1.194814E+00      3.623075E-01      0.000000E+00    6268
      1091       G      0.000000E+00      0.000000E+00     -2.875193E+00    6269
-CONT-                  1.194814E+00      3.623075E-01      0.000000E+00    6270
      1092       G      0.000000E+00      0.000000E+00     -6.041761E+00    6271
-CONT-                  1.194814E+00      3.623075E-01      0.000000E+00    6272
      2000       G      0.000000E+00      0.000000E+00      0.000000E+00    6273
-CONT-                  0.000000E+00      0.000000E+00      0.000000E+00    6274
      2010       G      0.000000E+00      0.000000E+00     -2.704221E+00    6275
-CONT-                 -4.227713E-01     -2.410007E-02      0.000000E+00    6276
      2011       G      0.000000E+00      0.000000E+00     -2.749291E+00    6277
-CONT-                 -4.152988E-01     -2.200303E-02      0.000000E+00    6278
      2012       G      0.000000E+00      0.000000E+00     -2.551804E+00    6279
-CONT-                 -4.158167E-01     -2.698118E-02      0.000000E+00    6280
      2013       G      0.000000E+00      0.000000E+00     -2.835118E+00    6281
-CONT-                 -4.227713E-01     -2.410007E-02      0.000000E+00    6282
      2020       G      0.000000E+00      0.000000E+00     -3.625453E+00    6283
-CONT-                  3.483617E-01     -1.973177E-01      0.000000E+00    6284
      2030       G      0.000000E+00      0.000000E+00      5.692928E-02    6285
-CONT-                  4.718309E-01      3.088503E-02      0.000000E+00    6286
      2040       G      0.000000E+00      0.000000E+00      2.155251E+00    6287
-CONT-                  1.272829E-01     -1.019606E-02      0.000000E+00    6288
      2050       G      0.000000E+00      0.000000E+00      1.525941E+00    6289
-CONT-                 -3.461086E-01     -9.404434E-02      0.000000E+00    6290
      2060       G      0.000000E+00      0.000000E+00     -1.064187E+00    6291
-CONT-                 -2.859204E-01      1.588417E-01      0.000000E+00    6292
      2070       G      0.000000E+00      0.000000E+00     -2.389525E+00    6293
-CONT-                  1.066049E-01      1.794890E-01      0.000000E+00    6294
      2080       G      0.000000E+00      0.000000E+00     -3.055361E-01    6295
-CONT-                  3.626850E-01     -3.122204E-01      0.000000E+00    6296
      2090       G      0.000000E+00      0.000000E+00      1.098622E+00    6297
-CONT-                  3.839718E-01     -3.763342E-01      0.000000E+00    6298
      2091       G      0.000000E+00      0.000000E+00      1.790497E-01    6299
-CONT-                  3.839718E-01     -3.763342E-01      0.000000E+00    6300
      2092       G      0.000000E+00      0.000000E+00      3.468211E+00    6301
-CONT-                  3.839718E-01     -3.763342E-01      0.000000E+00    6302
      3000       G      0.000000E+00      0.000000E+00      4.272457E-01    6303
-CONT-                 -4.152959E-01     -2.421850E-02      0.000000E+00    6304
      3001       G      0.000000E+00      0.000000E+00      5.083296E-02    6305
-CONT-                 -4.152959E-01     -2.420453E-02      0.000000E+00    6306
      3002       G      0.000000E+00      0.000000E+00      2.701269E-01    6307
-CONT-                 -4.152959E-01     -2.420501E-02      0.000000E+00    6308
      3004       G      0.000000E+00      0.000000E+00      5.177040E-01    6309
-CONT-                 -4.154647E-01     -2.428072E-02      0.000000E+00    6310
      3005       G      0.000000E+00      0.000000E+00      6.376078E-01    6311
-CONT-                 -4.156879E-01     -2.436732E-02      0.000000E+00    6312
      3006       G      0.000000E+00      0.000000E+00      8.355614E-01    6313
-CONT-                 -4.156879E-01     -2.442300E-02      0.000000E+00    6314
      3007       G      0.000000E+00      0.000000E+00      8.655773E-01    6315
-CONT-                 -4.156879E-01     -2.442301E-02      0.000000E+00    6316
      3011       G      1.992692E+00     -6.571476E+00     -4.636008E+00    6317
-CONT-                  1.194814E+00      3.623075E-01      0.000000E+00    6318
      3012       G      1.992692E+00     -6.571476E+00     -6.041761E+00    6319
-CONT-                  1.194814E+00      3.623075E-01      0.000000E+00    6320
      3013       G     -1.992692E+00      6.571476E+00     -4.636008E+00    6321
-CONT-                  1.194814E+00      3.623075E-01      0.000000E+00    6322
      3014       G     -1.992692E+00      6.571476E+00     -6.041761E+00    6323
-CONT-                  1.194814E+00      3.623075E-01      0.000000E+00    6324
      4011       G     -2.069838E+00     -2.111845E+00      2.008030E+00    6325
-CONT-                  3.839718E-01     -3.763342E-01      0.000000E+00    6326
      4012       G     -2.069838E+00     -2.111845E+00      3.468207E+00    6327
-CONT-                  3.839718E-01     -3.763342E-01      0.000000E+00    6328
      4013       G      2.069838E+00      2.111845E+00      2.008030E+00    6329
-CONT-                  3.839718E-01     -3.763342E-01      0.000000E+00    6330
      4014       G      2.069838E+00      2.111845E+00      3.468207E+00    6331
-CONT-                  3.839718E-01     -3.763342E-01      0.000000E+00    6332
      5011       G      0.000000E+00      0.000000E+00      1.586648E+00    6333
-CONT-                 -4.159966E-01     -3.134989E-02      0.000000E+00    6334
      5012       G      0.000000E+00      0.000000E+00      6.190947E+00    6335
-CONT-                 -4.159966E-01     -3.134989E-02      0.000000E+00    6336
      5021       G      0.000000E+00      0.000000E+00      4.498680E-02    6337
-CONT-                 -4.160326E-01     -2.499045E-02      0.000000E+00    6338
      5022       G      0.000000E+00      0.000000E+00     -4.836664E+00    6339
-CONT-                 -4.160326E-01     -2.499045E-02      0.000000E+00    6340
      6011       G      0.000000E+00      0.000000E+00     -3.481659E+00    6341
-CONT-                  4.879009E-01      1.206995E-01      0.000000E+00    6342
      6012       G      0.000000E+00      0.000000E+00     -1.082082E+01    6343
-CONT-                  4.879009E-01      1.206995E-01      0.000000E+00    6344
      6021       G      0.000000E+00      0.000000E+00     -3.239035E+00    6345
-CONT-                  4.718241E-01      3.089468E-02      0.000000E+00    6346
      6022       G      0.000000E+00      0.000000E+00      3.042117E+00    6347
-CONT-                  4.718241E-01      3.089468E-02      0.000000E+00    6348
      7011       G      0.000000E+00      0.000000E+00     -8.325318E+00    6349
-CONT-                 -9.245135E-01     -1.606486E-01      0.000000E+00    6350
      7012       G      0.000000E+00      0.000000E+00      5.205189E+00    6351
-CONT-                 -9.245135E-01     -1.606486E-01      0.000000E+00    6352
      7021       G      0.000000E+00      0.000000E+00      4.058127E+00    6353
-CONT-                 -3.459738E-01     -9.423527E-02      0.000000E+00    6354
      7022       G      0.000000E+00      0.000000E+00     -1.518720E-01    6355
-CONT-                 -3.459738E-01     -9.423527E-02      0.000000E+00    6356
      8011       G      0.000000E+00      0.000000E+00      7.637773E+00    6357
-CONT-                  2.943441E-01      5.293645E-02      0.000000E+00    6358
      8012       G      0.000000E+00      0.000000E+00      3.320072E+00    6359
-CONT-                  2.943441E-01      5.293645E-02      0.000000E+00    6360
      8021       G      0.000000E+00      0.000000E+00     -3.411259E+00    6361
-CONT-                  1.063855E-01      1.797999E-01      0.000000E+00    6362
      8022       G      0.000000E+00      0.000000E+00     -2.950604E+00    6363
-CONT-                  1.063855E-01      1.797999E-01      0.000000E+00    6364
      9001       G      0.000000E+00      0.000000E+00      1.280454E-01    6365
-CONT-                 -4.152959E-01     -2.420455E-02      0.000000E+00    6366
      9002       G      0.000000E+00      0.000000E+00      6.059479E-01    6367
-CONT-                 -4.156290E-01     -2.434206E-02      0.000000E+00    6368
      9003       G      0.000000E+00      0.000000E+00      1.700176E+00    6369
-CONT-                  1.113277E+00      3.275526E-01      0.000000E+00    6370
      9004       G      0.000000E+00      0.000000E+00     -4.354670E-01    6371
-CONT-                  1.113277E+00      3.275526E-01      0.000000E+00    6372
      9005       G      0.000000E+00      0.000000E+00     -1.949967E+00    6373
-CONT-                  3.626850E-01     -3.122204E-01      0.000000E+00    6374
      9006       G      0.000000E+00      0.000000E+00      8.571044E-02    6375
-CONT-                  3.626850E-01     -3.122204E-01      0.000000E+00    6376
     10001       G      0.000000E+00      0.000000E+00      3.348781E+00    6377
-CONT-                 -4.159966E-01     -3.134989E-02      0.000000E+00    6378
     10002       G      0.000000E+00      0.000000E+00     -6.354829E+00    6379
-CONT-                  4.879009E-01      1.206995E-01      0.000000E+00    6380
     10003       G      0.000000E+00      0.000000E+00     -3.028331E+00    6381
-CONT-                 -9.245135E-01     -1.606486E-01      0.000000E+00    6382
     10004       G      0.000000E+00      0.000000E+00      5.947459E+00    6383
-CONT-                  2.943441E-01      5.293645E-02      0.000000E+00    6384
     10011       G      0.000000E+00      0.000000E+00      3.036047E+00    6385
-CONT-                 -4.159966E-01     -3.134989E-02      0.000000E+00    6386
     10012       G      0.000000E+00      0.000000E+00     -6.427238E+00    6387
-CONT-                  4.879009E-01      1.206995E-01      0.000000E+00    6388
     10013       G      0.000000E+00      0.000000E+00     -2.826762E+00    6389
-CONT-                 -9.245135E-01     -1.606486E-01      0.000000E+00    6390
     10014       G      0.000000E+00      0.000000E+00      5.884976E+00    6391
-CONT-                  2.943441E-01      5.293645E-02      0.000000E+00    6392
     10101       G      0.000000E+00      0.000000E+00      3.031959E+00    6393
-CONT-                 -4.156087E-01     -3.129642E-02      0.000000E+00    6394
     10102       G      0.000000E+00      0.000000E+00     -6.428213E+00    6395
-CONT-                  4.874076E-01      1.200004E-01      0.000000E+00    6396
     10103       G      0.000000E+00      0.000000E+00     -2.822712E+00    6397
-CONT-                 -9.246212E-01     -1.608011E-01      0.000000E+00    6398
     10104       G      0.000000E+00      0.000000E+00      5.883410E+00    6399
-CONT-                  2.947221E-01      5.347204E-02      0.000000E+00    6400
     13001       G      0.000000E+00      0.000000E+00      1.626579E-01    6401
-CONT-                 -4.152959E-01     -2.420457E-02      0.000000E+00    6402
     13002       G      0.000000E+00      0.000000E+00      5.504963E-01    6403
-CONT-                 -4.155259E-01     -2.430204E-02      0.000000E+00    6404
     18888       G      0.000000E+00      0.000000E+00      6.264013E-01    6405
-CONT-                 -4.156671E-01     -2.435817E-02      0.000000E+00    6406
     20001       G      0.000000E+00      0.000000E+00     -1.823293E+00    6407
-CONT-                 -4.160326E-01     -2.499045E-02      0.000000E+00    6408
     20002       G      0.000000E+00      0.000000E+00     -7.800599E-01    6409
-CONT-                  4.718241E-01      3.089468E-02      0.000000E+00    6410
     20003       G      0.000000E+00      0.000000E+00      2.409976E+00    6411
-CONT-                 -3.459738E-01     -9.423527E-02      0.000000E+00    6412
     20004       G      0.000000E+00      0.000000E+00     -3.230920E+00    6413
-CONT-                  1.063855E-01      1.797999E-01      0.000000E+00    6414
     20021       G      0.000000E+00      0.000000E+00     -1.594392E+00    6415
-CONT-                 -4.160326E-01     -2.499045E-02      0.000000E+00    6416
     20022       G      0.000000E+00      0.000000E+00     -5.704454E-01    6417
-CONT-                  4.718241E-01      3.089468E-02      0.000000E+00    6418
     20023       G      0.000000E+00      0.000000E+00      2.188584E+00    6419
-CONT-                 -3.459738E-01     -9.423527E-02      0.000000E+00    6420
     20024       G      0.000000E+00      0.000000E+00     -3.020220E+00    6421
-CONT-                  1.063855E-01      1.797999E-01      0.000000E+00    6422
     20201       G      0.000000E+00      0.000000E+00     -1.591428E+00    6423
-CONT-                 -4.157953E-01     -2.502317E-02      0.000000E+00    6424
     20202       G      0.000000E+00      0.000000E+00     -5.663292E-01    6425
-CONT-                  4.718309E-01      3.088503E-02      0.000000E+00    6426
     20203       G      0.000000E+00      0.000000E+00      2.184121E+00    6427
-CONT-                 -3.461086E-01     -9.404434E-02      0.000000E+00    6428
     20204       G      0.000000E+00      0.000000E+00     -3.015891E+00    6429
-CONT-                  1.066049E-01      1.794890E-01      0.000000E+00    6430
     28888       G      0.000000E+00      0.000000E+00      5.116341E-01    6431
-CONT-                 -4.154534E-01     -2.427700E-02      0.000000E+00    6432
    100001       G      0.000000E+00      0.000000E+00      2.700427E+00    6433
-CONT-                 -4.156087E-01     -3.129642E-02      0.000000E+00    6434
    101001       G      0.000000E+00      0.000000E+00      2.383497E+00    6435
-CONT-                 -4.156087E-01     -3.129642E-02      0.000000E+00    6436
    200001       G      0.000000E+00      0.000000E+00     -1.348730E+00    6437
-CONT-                 -4.157953E-01     -2.502317E-02      0.000000E+00    6438
    202002       G      0.000000E+00      0.000000E+00     -1.116722E+00    6439
-CONT-                 -4.157953E-01     -2.502317E-02      0.000000E+00    6440
    888011       G      0.000000E+00      0.000000E+00      0.000000E+00    6441
-CONT-                  0.000000E+00      0.000000E+00      0.000000E+00    6442
    888012       G      0.000000E+00      0.000000E+00      0.000000E+00    6443
-CONT-                  0.000000E+00      0.000000E+00      0.000000E+00    6444
    888013       G      0.000000E+00      0.000000E+00      0.000000E+00    6445
-CONT-                  0.000000E+00      0.000000E+00      0.000000E+00    6446
    888014       G      0.000000E+00      0.000000E+00      0.000000E+00    6447
-CONT-                  0.000000E+00      0.000000E+00      0.000000E+00    6448
    888015       G      0.000000E+00      0.000000E+00      0.000000E+00    6449
-CONT-                  0.000000E+00      0.000000E+00      0.000000E+00    6450
    888016       G      0.000000E+00      0.000000E+00      0.000000E+00    6451
-CONT-                  0.000000E+00      0.000000E+00      0.000000E+00    6452
    888017       G      0.000000E+00      0.000000E+00      0.000000E+00    6453
-CONT-                  0.000000E+00      0.000000E+00      0.000000E+00    6454
    888021       G      0.000000E+00      0.000000E+00      0.000000E+00    6455
-CONT-                  0.000000E+00      0.000000E+00      0.000000E+00    6456
    888022       G      0.000000E+00      0.000000E+00      0.000000E+00    6457
-CONT-                  0.000000E+00      0.000000E+00      0.000000E+00    6458
    888023       G      0.000000E+00      0.000000E+00      0.000000E+00    6459
-CONT-                  0.000000E+00      0.000000E+00      0.000000E+00    6460
    888024       G      0.000000E+00      0.000000E+00      0.000000E+00    6461
-CONT-                  0.000000E+00      0.000000E+00      0.000000E+00    6462
    888025       G      0.000000E+00      0.000000E+00      0.000000E+00    6463
-CONT-                  0.000000E+00      0.000000E+00      0.000000E+00    6464
    888026       G      0.000000E+00      0.000000E+00      0.000000E+00    6465
-CONT-                  0.000000E+00      0.000000E+00      0.000000E+00    6466
    888027       G      0.000000E+00      0.000000E+00      0.000000E+00    6467
-CONT-                  0.000000E+00      0.000000E+00      0.000000E+00    6468
    999011       G      0.000000E+00      0.000000E+00      2.056993E+00    6469
-CONT-                 -4.105429E-01     -2.912093E-02      0.000000E+00    6470
    999012       G      0.000000E+00      0.000000E+00      3.264750E+00    6471
-CONT-                  5.962503E-01     -9.446698E-03      0.000000E+00    6472
    999013       G      0.000000E+00      0.000000E+00     -3.632334E+00    6473
-CONT-                  8.800762E-01      1.209593E-01      0.000000E+00    6474
    999014       G      0.000000E+00      0.000000E+00     -7.759735E+00    6475
-CONT-                  7.504443E-02      4.486322E-02      0.000000E+00    6476
    999015       G      0.000000E+00      0.000000E+00     -5.214191E+00    6477
-CONT-                 -7.506440E-01     -1.207301E-01      0.000000E+00    6478
    999016       G      0.000000E+00      0.000000E+00      1.198701E+00    6479
-CONT-                 -8.795744E-01     -1.698607E-01      0.000000E+00    6480
    999017       G      0.000000E+00      0.000000E+00      5.735172E+00    6481
-CONT-                 -1.979942E-01     -4.942999E-02      0.000000E+00    6482
    999018       G      0.000000E+00      0.000000E+00      1.867460E+00    6483
-CONT-                  9.414430E-01      2.688307E-01      0.000000E+00    6484
    999021       G      0.000000E+00      0.000000E+00     -1.131437E+00    6485
-CONT-                 -4.196160E-01     -2.563802E-02      0.000000E+00    6486
    999022       G      0.000000E+00      0.000000E+00     -3.944998E+00    6487
-CONT-                 -2.898557E-01     -1.965592E-01      0.000000E+00    6488
    999023       G      0.000000E+00      0.000000E+00     -1.834998E+00    6489
-CONT-                  4.761825E-01     -7.103539E-02      0.000000E+00    6490
    999024       G      0.000000E+00      0.000000E+00      1.357181E+00    6491
-CONT-                  3.443190E-01      4.097886E-02      0.000000E+00    6492
    999025       G      0.000000E+00      0.000000E+00      2.227992E+00    6493
-CONT-                 -1.676184E-01     -8.919044E-02      0.000000E+00    6494
    999026       G      0.000000E+00      0.000000E+00      2.859346E-01    6495
-CONT-                 -3.849681E-01      2.055126E-02      0.000000E+00    6496
    999027       G      0.000000E+00      0.000000E+00     -2.056895E+00    6497
-CONT-                 -1.030877E-01      2.274639E-01      0.000000E+00    6498
    999028       G      0.000000E+00      0.000000E+00     -1.157239E+00    6499
-CONT-                  3.141205E-01     -1.887173E-01      0.000000E+00    6500
