$ init master(s)
ID model updating of mAEWing1
TIME 100
SOL 200
CEND
TITLE = Model updating of mAEWing1 v1.0
ECHO = NONE
DISP = ALL
ANALYSIS = MODES
$DSAPRT(START=1,END=LAST)=ALL
DESOBJ(MIN) = 403
DESSUB = 90001
SUBCASE 1
   LABEL = MODAL ANALYSIS
   METHOD = 101
BEGIN BULK
$ Direct Text Input for Bulk Data
PARAM ,POST,-1
PARAM   PRTMAXIM YES
$ GROUND POINT FOR WEIGHT GENERATION
PARAM,GRDPNT,99
$ PRE_PROPVERT WEIGHT TO MASS (1/386)  
PARAM     WTMASS .002591
$ PRE_PROPVERT FROM IN/SEC TO KNOTS
PARAM       VREF  20.254
EIGR     101    MGIV                            20
         MASS
$1------$2------$3------$4------$5------$6------$7------$8------$9------$0
$ GRDSET           0                                       126
INCLUDE DESVAR_WS3_FULL.dat
INCLUDE Accel_LEFTwing_WS3.dat
INCLUDE WS3_spar.dat
$1------$2------$3------$4------$5------$6------$7------$8------$9------$0                             
$=====================================================
$                  GRIDS for fuselage
$=====================================================
GRID	3000            .0      .0       0.  
$1------$2------$3------$4------$5------$6------$7------$8------$9------$0                             
GRID    1010            3.09142 -7.65    0.
GRID    1011            0.8000  -7.65    0.
GRID    1012            8.66    -7.65    0.
GRID    1020            5.912   -14.63   0.
$ CONM2 for servo 1 at grid 1030
GRID    1030            9.09646 -22.51   0.
GRID    1040            11.7031 -28.961  0.
$ CONM2 for servo 2at grid 1050
$1------$1------$1------$1------$1------$1------$1------$1------
GRID    1050            14.6731 -36.30550.
GRID    1060            17.4955 -43.29410.
$ CONM2 for servo 3 at grid 1070
$1------$1------$1------$1------$1------$1------$1------$1------
GRID    1070            20.2498 -50.101 0.
GRID    1080            23.287  -57.626 0.
GRID    1090            24.4    -60.25  0.
GRID    999011          1.5457  -3.825  0.0
GRID    999012          4.5018  -11.14  0.0
GRID    999013          7.5043  -18.57  0.0
GRID    999014          10.40   -25.735 0.0
$$ cg FOR left WING
$ GRID    999015          12.72   -31.476 0.0  
$ GRID    999015          12.7853 -31.66470.0
GRID    999015          13.3003 -32.93550.0 
$ GRID    99100           12.7835 -31.58990.0
$
GRID    99              13.34   -32.65  0.0    
$ $ 999100 is cg location for wing. no mass, just for cg check
RBE2    99      99      123456  999015
$
$ GRID    999999          11.67   -31.476 0.0  
$
GRID    999016          16.0843 -39.800 0.0
GRID    999017          18.8726 -46.69750.0
GRID    999018          22.4915 -55.69450.0   
$$
$ 1001 and 1011 are PURE spars through centerbody
$ CBEAM   1001    1001    3000    999011  0.0     0.0     1.0
$ CBEAM   1011    1001    999011  1010    0.0     0.0     1.0
$ 1002 and 1022 are inner wing beam 
CBEAM   1002    1002    1010    999012  0.0     0.0     1.0             +cb1
+cb1                    -0.00   -0.000  0.0     -0.00   -0.000  0.0
CBEAM   1022    1002    999012  1020    0.0     0.0     1.0             +cb1
+cb1                    -0.00   -0.000  0.0     -0.00   -0.000  0.0
$ 1003-1088 outer wing beam elements
CBEAM   10301   1003    1020    101     0.0     0.0     1.0             +cb1
+cb1                    -.373628-1.020740.0     -.373628-1.020740.0
CBEAM   10302   1003    101     999013  0.0     0.0     1.0             +cb1
+cb1                    -.373628-1.020740.0     -.373628-1.020740.0
CBEAM   1033    1003    999013  1030    0.0     0.0     1.0             +cb1
+cb1                    -0.226  -0.3866 0.0     -0.226  -0.3866 0.0
CBEAM   1004    1004    1030    999014  0.0     0.0     1.0             +cb1
+cb1                    -0.226  -0.3866 0.0     -0.226  -0.3866 0.0
CBEAM   1041    1004    999014  102     0.0     0.0     1.0             +cb1
+cb1                    -.373628-1.020740.0     -.373628-1.020740.0
CBEAM   1042    1004    102     1040    0.0     0.0     1.0             +cb1
+cb1                    -.373628-1.020740.0     -.373628-1.020740.0
CBEAM   1005    1005    1040    999015  0.0     0.0     1.0             +cb1
+cb1                    -0.226  -0.3866 0.0     -0.226  -0.3866 0.0
CBEAM   1051    1005    999015  103     0.0     0.0     1.0             +cb1
+cb1                    -.373628-1.020740.0     -.373628-1.020740.0
CBEAM   1052    1005    103     1050    0.0     0.0     1.0             +cb1
+cb1                    -.373628-1.020740.0     -.373628-1.020740.0
CBEAM   1006    1006    1050    999016  0.0     0.0     1.0             +cb1
+cb1                    -0.226  -0.3866 0.0     -0.226  -0.3866 0.0
CBEAM   1066    1006    999016  1060    0.0     0.0     1.0             +cb1
+cb1                    -0.226  -0.3866 0.0     -0.226  -0.3866 0.0
CBEAM   1071    1007    1060    104     0.0     0.0     1.0             +cb1
+cb1                    -.373628-1.020740.0     -.373628-1.020740.0
CBEAM   1072    1007    104     999017  0.0     0.0     1.0             +cb1
+cb1                    -.373628-1.020740.0     -.373628-1.020740.0
CBEAM   1077    1007    999017  1070    0.0     0.0     1.0             +cb1
+cb1                    -0.226  -0.3866 0.0     -0.226  -0.3866 0.0
CBEAM   1008    1008    1070    105     0.0     0.0     1.0             +cb1
+cb1                    -0.226  -0.3866 0.0     -0.226  -0.3866 0.0
CBEAM   1081    1008    105     999018  0.0     0.0     1.0             +cb1
+cb1                    -0.226  -0.3866 0.0     -0.226  -0.3866 0.0
CBEAM   1088    1008    999018  1080    0.0     0.0     1.0             +cb1
+cb1                    -0.226  -0.3866 0.0     -0.226  -0.3866 0.0
$ 1009 ouermost wing beam element
CBEAM   1009    1009    1080    1090    0.0     0.0     1.0             +cb1
+cb1                    -0.126  -0.1866 0.0     -0.126  -0.1866 0.0 
$ To take account the foam GJ, a little bit increase in the J for all beam
$ 1001 - Area for spar, EI, GJ assumed to be large in full model
$ 1002 - Inner wing properties
$ 1003 -1009 Outer wing properties
PBEAM   1002    913     13.000  1.324e-11.529e+0        4.531e-2 
PBEAM   1003    903     7.3890  1.324e-21.029e+0        4.531e-2
PBEAM   1004    903     7.3890  1.324e-21.029e+0        4.531e-2
PBEAM   1005    903     7.3890  1.324e-21.029e+0        4.531e-2 
PBEAM   1006    903     7.3890  1.324e-21.029e+0        4.531e-2
PBEAM   1007    903     7.3890  1.324e-21.029e+0        4.531e-2
PBEAM   1008    903     7.3890  1.324e-21.029e+0        4.531e-2 
PBEAM   1009    903     7.3890  1.324e-21.029e+0        4.531e-2  
$
$ 910 - for spar properties; no change
$ 
MAT1    913     6.660e+61.252e+6        .006392
MAT1    903     6.660e+61.252e+6        .006392
$ MAT1    920     7.224e+61.619e+6        .006392
$ MAT1    930     7.224e+61.619e+6        .006392
$
$1------$1------$1------$1------$1------$1------$1------
CBAR    1031    301     1010    1011    0.      0.      1.
CBAR    1032    301     1010    1012    0.      0.      1.
$ bar properties
PBARL   301     905             BAR
$       DIM1    DIM2    NSM
        0.25    1.48
MAT1    905     2.01e+9         .25     .01265
$ Mass moment of inertia of the wing foam form due to the inconsistency of cg and ea
CONM2   170001  1010    102     0.0     
        16.693  0.0     2.642
CONM2   170002  999012  102     0.0  
        33.385  0.0     5.2847
CONM2   170003  1020    102     0.0  
        33.385  0.0     5.2847
CONM2   170004  999013  102     0.0     
        33.385  0.0     5.2847
CONM2   170005  1030    102     0.0  
        33.385  0.0     5.2847
CONM2   170006  999014  102     0.0   
        33.385  0.0     5.2847
CONM2   170007  1040    102     0.0  
        33.385  0.0     5.2847
CONM2   170008  999015  102     0.0  
        33.385  0.0     5.2847
CONM2   170009  1050    102     0.0  
        33.385  0.0     5.2847
CONM2   170010  999016  102     0.0  
        33.385  0.0     5.2847
CONM2   170011  1060    102     0.0  
        33.385  0.0     5.2847
CONM2   170012  999017  102     0.0   
        33.385  0.0     5.2847
CONM2   170013  1070    102     0.0  
        33.385  0.0     5.2847
CONM2   170014  105     102     0.0   
        33.385  0.0     5.2847
CONM2   170015  1080    102     0.0  
        33.385  0.0     5.2847
CONM2   170016  1090    102     0.0   
        16.693  0.0     2.642
$$  ======================= P O I N T  M A S S E S ==========
$ $ Three servos
CONM2   101     1030    102     0.1235  0.0     0.0     0.0
CONM2   102     1050    102     0.1235  0.0     0.0     0.0
CONM2   103     1070    102     0.1235  0.0     0.0     0.0
$ $  -------  Three flaps point masses and locations  ---------
GRID    10002   102     1.03    -5.7744 0.
GRID    10003   102     1.03    -20.65440.
GRID    10004   102     1.03    -35.53440.
CONM2   402     10002   102     0.0960  0.00    -1.6000 0.0  
CONM2   403     10003   102     0.0960  0.00    -1.6000 0.0
CONM2   404     10004   102     0.0960  0.00    -1.6000 0.0  
$ Rigid bar connection
RBE2    70001   1030    123456  10102
RBE2    70002   1050    123456  10103
RBE2    70003   1070    123456  10104
RBE2    70101   10012   123456  10002
RBE2    70102   10013   123456  10003
RBE2    70103   10014   123456  10004
$ Spring connections
$1------$2------$3------$4------$5------$6------$7------$8------$9------$0
GRID    10012   102     0.01    -5.7744 0.
GRID    10013   102     0.01    -20.65440.
GRID    10014   102     0.01    -35.53440.
GRID    10102   102     -0.01   -5.7744 0.
GRID    10103   102     -0.01   -20.65440.
GRID    10104   102     -0.01   -35.53440.
CBUSH   11002   20000   10012   10102                            102
CBUSH   11003   20000   10013   10103                            102
CBUSH   11004   20000   10014   10104                            102
PBUSH   20000   K       1.0E6   1.0E6   1.0E6   1.0E6   1.0E6    1.0E6 
$ Fictitious support at the CG 
SUPORT,3000,123456
$ Accelerometers
GRID    9003            21.04   -56.24  0.0
GRID    9004            23.62   -55.20  0.0
CONM2   9003    9003            .0062   0.0     0.0     0.0
CONM2   9004    9004            .0062   0.0     0.0     0.0
RBE2    700001  999018  123456  9003
RBE2    700002  999018  123456  9004
$ CONM2 for tip attach
CONM2   105     1090            .01309  1.3     0.0     0.0
$
$1------$2------$3------$4------$5------$6------$7------$8------$9------$0
$SPC1    99      345     1001    3001    THRU    3006 
$
$ Referenced Coordinate Frames for control surfaces and body flaps
$1------$2------$3------$4------$5------$6------$7------$8------$9------$0
$ --- Left body flap ---
CORD2R  101             13.64   -1.16   0.0     13.64    -1.16  1.0
        17.34   -2.75   0.0   
$ --- Left C.S. 1 ---
CORD2R  102             9.753   -16.016 0.0     9.753   -16.016 1.0
        12.34   -14.97  1.0 
$1------$2------$3------$4------$5------$6------$7------$8------$9------$0
$ --- Right body flap ---
$1------$2------$3------$4------$5------$6------$7------$8------$9------$0
CORD2R  201             13.64    1.16   0.0     13.64    1.16   1.0
        17.34   2.75    0.0
$ --- Right C.S. 1 ---
CORD2R  202             9.753    16.016 0.0     9.753    16.016 1.0
        12.34    14.97  1.0		
ENDDATA 6741254d