$ left wing
INIT MASTER(S)
SOL 103
CEND
$ Direct Text Input for Global Case Control Data
TITLE = MSC.Nastran job created on 20-Feb-15 at 15:37:03
ECHO = SORT
$ Using Nastran default values for RESVEC
SUBCASE 1
$ Subcase name : Default
   SUBTITLE=Default
   METHOD = 101
  $ SPC = 99
   VECTOR(SORT1,REAL)=ALL
  $ SPCFORCES(SORT1,REAL)=ALL
$   DISP(PUNCH)=ALL
BEGIN BULK
$ Direct Text Input for Bulk Data
PARAM ,POST ,-1
PARAM ,PRTMAXIM,YES
$ GROUND POINT FOR WEIGHT GENERATION
PARAM,GRDPNT,99
$ PRE_PROPVERT WEIGHT TO MASS (1/386)  
PARAM,WTMASS ,.002591
$ PRE_PROPVERT FROM IN/SEC TO KNOTS
PARAM ,VREF,20.254
$EIGRL    100                     20      0
EIGR     101    MGIV                            20
         MASS
$$$$$$$$$$$$$$$$$$$$$$$$$$$$$$$$$$$$$$$$$$$$$$$$$$$$$$$$$$$$$$$$$$$$$$$$$$$$$$
$ GVT 20 acceles locations
$1------$1------$1------$1------$1------$1------$1------$1------
$ left wing accels locations
GRID     1              3.480   -17.870 0.0
GRID     2              8.110   -16.000 0.0
GRID     3              7.220   -27.140 0.0
GRID     4              11.86   -25.270 0.0
GRID     5              10.97   -36.420 0.0
GRID     6              15.61   -34.540 0.0
GRID     7              14.72   -45.690 0.0
GRID     8              19.35   -43.810 0.0
GRID     9              18.46   -54.960 0.0
GRID     10             23.10   -53.090 0.0
$ left wing beam nodes to connect accelerometers
GRID     101            6.696   -16.571 0.0
GRID     102            10.443  -25.841 0.0
GRID     103            14.191  -35.115 0.0
GRID     104            17.936  -44.384 0.0
GRID     105            21.677  -53.663 0.0
$ Connect GVT accels to EA
$ left wing
RBE2    1000001 101     123456  1
RBE2    1000002 101     123456  2
RBE2    1000003 102     123456  3
RBE2    1000004 102     123456  4
RBE2    1000005 103     123456  5
RBE2    1000006 103     123456  6
RBE2    1000007 104     123456  7
RBE2    1000008 104     123456  8
RBE2    1000009 105     123456  9
RBE2    1000010 105     123456  10
$$$$$$$$$$$$$$$$$$$$$$$$$$$$$$$$$$$$$$$$$$$$$$$$$$$$$$$$$$$$$$$$$$$$$$$$$$$$$$
$$$$$$$$$$$$$$$$$$$$$$$$$$$$$$$$$$$$$$$$$$$$$$$$$$$$$$$$$$$$$$$$$$$$$$$$$$$$$$
$ Only for spar
$ No wing foam + cover considered; they are modeled as separatly
$
$
$ 1001 and 1011 are PURE spars through centerbody
CBEAM   2001    1000    3000    999011  0.0     0.0     1.0
CBEAM   2011    1000    999011  1010    0.0     0.0     1.0
$ 1002 and 1022 are inner wing beam 
CBEAM   2002    1000    1010    999012  0.0     0.0     1.0 
CBEAM   2022    1000    999012  1020    0.0     0.0     1.0 
$ 1003-1088 outer wing beam elements
CBEAM   20301   1000    1020    101     0.0     0.0     1.0
CBEAM   20302   1000    101     999013  0.0     0.0     1.0

CBEAM   2033    1000    999013  1030    0.0     0.0     1.0

CBEAM   2004    1000    1030    999014  0.0     0.0     1.0
CBEAM   2041    1000    999014  102     0.0     0.0     1.0
CBEAM   2042    1000    102     1040    0.0     0.0     1.0

CBEAM   2005    1000    1040    999015  0.0     0.0     1.0
CBEAM   2051    1000    999015  103     0.0     0.0     1.0
CBEAM   2052    1000    103     1050    0.0     0.0     1.0

CBEAM   2006    1000    1050    999016  0.0     0.0     1.0
CBEAM   2066    1000    999016  1060    0.0     0.0     1.0

CBEAM   2071    1000    1060    104     0.0     0.0     1.0
CBEAM   2072    1000    104     999017  0.0     0.0     1.0
$
CBEAM   2077    1000    999017  1070    0.0     0.0     1.0
$ ================ 105 to change one point mass location ========
$
CBEAM   2008    1000    1070    105     0.0     0.0     1.0
CBEAM   2081    1000    105     999018  0.0     0.0     1.0
CBEAM   2088    1000    999018  1080    0.0     0.0     1.0
$ 1009 ouermost wing beam element
CBEAM   2009    1000    1080    1090    0.0     0.0     1.0
$
$ PBEAM   ID    MAT      A        I1      I2               J
$ SPAR#9
$1------$2------$3------$4------$5------$6------$7------$8------$9------$0   
PBEAM   1000    100     1.0200  1.009e-21.529e+1        3.275e-1
MAT1    100     292900.072230.00        9.521e-3
$$$$$$$$$$$$$$$$$$$$$$$$$$$$$$$$$$$$$$$$$$$$$$$$$$$$$$$$$$$$$$$$$$$$$$$$$$$$$$
$$$$$$
$1------$2------$3------$4------$5------$6------$7------$8------$9------$0                           
GRID    3000            .0      .0       0.
GRID    1010            3.09142 -7.65    0.
GRID    1011            0.8000  -7.65    0.
GRID    1012            8.66    -7.65    0.
GRID    1020            5.912   -14.63   0.
$ CONM2 for servo 1 at grid 1030
GRID    1030            9.09646 -22.51  0.
GRID    1040            11.7031 -28.961 0.
$ CONM2 for servo 2at grid 1050
GRID    1050            14.6731 -36.30550.
GRID    1060            17.4955 -43.29410.
$ CONM2 for servo 3 at grid 1070
GRID    1070            20.24981-50.101 0.0
GRID    1080            23.287  -57.626 0.0
GRID    1090            24.4    -60.25  0.0
GRID    999011          1.5457  -3.825  0.0
GRID    999012          4.5018  -11.14  0.0
GRID    999013          7.5043  -18.57  0.0
GRID    999014          10.40   -25.735 0.0
GRID    999016          16.0843 -39.80  0.0
GRID    999017          18.8726 -46.69750.0
GRID    999018          22.4915 -55.69450.0
$$ cg FOR left WING
$ GRID    999015          12.72   -31.476 0.0
$ GRID    999015          12.7853 -31.66470.0
GRID    999015          13.3003 -32.93550.0  
$$$$$$$ CG Location 
GRID    99              12.95   -31.00  0.0
$ $ 999100 is cg location for wing. no mass, just for cg check
RBE2    99      99      123456  999015
$ $ 999100 is cg location for wing. no mass, just for cg check
$ RBE2    999100  99100   123456  999015
$$
$1------$2------$3------$4------$5------$6------$7------$8------$9------$0
CBEAM   1002    1002    1010    999012  0.0     0.0     1.0             +cb1
+cb1                    0.441083-0.031160.0     0.441083-0.031160.0  
CBEAM   1022    1002    999012  1020    0.0     0.0     1.0             +cb1
+cb1                    0.441083-0.031160.0     0.441083-0.031160.0  
$ 1003-1088 outer wing beam elements
CBEAM   10301   1003    1020    101     0.0     0.0     1.0             +cb1
+cb1                    -0.09299-0.274080.0     -0.09299-0.274080.0  
CBEAM   10302   1003    101     999013  0.0     0.0     1.0             +cb1
+cb1                    -0.09299-0.274080.0     -0.09299-0.274080.0  
CBEAM   1033    1003    999013  1030    0.0     0.0     1.0             +cb1
+cb1                    -0.09299-0.274080.0     -0.09299-0.274080.0  
CBEAM   1004    1004    1030    999014  0.0     0.0     1.0             +cb1
+cb1                    -0.09299-0.274080.0     -0.09299-0.274080.0  
CBEAM   1041    1004    999014  102     0.0     0.0     1.0             +cb1
+cb1                    -0.09299-0.274080.0     -0.09299-0.274080.0  
CBEAM   1042    1004    102     1040    0.0     0.0     1.0             +cb1
+cb1                    -0.09299-0.274080.0     -0.09299-0.274080.0  
CBEAM   1005    1005    1040    999015  0.0     0.0     1.0             +cb1
+cb1                    -0.09299-0.274080.0     -0.09299-0.274080.0  
CBEAM   1051    1005    999015  103     0.0     0.0     1.0             +cb1
+cb1                    -0.09299-0.274080.0     -0.09299-0.274080.0  
CBEAM   1052    1005    103     1050    0.0     0.0     1.0             +cb1
+cb1                    -0.09299-0.274080.0     -0.09299-0.274080.0  
CBEAM   1006    1006    1050    999016  0.0     0.0     1.0             +cb1
+cb1                    -0.09299-0.274080.0     -0.09299-0.274080.0  
CBEAM   1066    1006    999016  1060    0.0     0.0     1.0             +cb1
+cb1                    -0.09299-0.274080.0     -0.09299-0.274080.0  
CBEAM   1071    1007    1060    104     0.0     0.0     1.0             +cb1
+cb1                    -0.09299-0.274080.0     -0.09299-0.274080.0  
CBEAM   1072    1007    104     999017  0.0     0.0     1.0             +cb1
+cb1                    -0.09299-0.274080.0     -0.09299-0.274080.0  
CBEAM   1077    1007    999017  1070    0.0     0.0     1.0             +cb1
+cb1                    -0.09299-0.274080.0     -0.09299-0.274080.0  
CBEAM   1008    1008    1070    105     0.0     0.0     1.0             +cb1
+cb1                    -0.09299-0.274080.0     -0.09299-0.274080.0  
CBEAM   1081    1008    105     999018  0.0     0.0     1.0             +cb1
+cb1                    -0.09299-0.274080.0     -0.09299-0.274080.0  
CBEAM   1088    1008    999018  1080    0.0     0.0     1.0             +cb1
+cb1                    -0.09299-0.274080.0     -0.09299-0.274080.0  
$ 1009 ouermost wing beam element
CBEAM   1009    1009    1080    1090    0.0     0.0     1.0             +cb1
+cb1                    -0.634710.1288120.0     -0.634710.1288120.0  
$ To take account the foam GJ, a little bit increase in the J for all beam
$ 1001 - Area for spar, EI, GJ assumed to be large in full model
$ 1002 - Inner wing properties
$ 1003 -1009 Outer wing properties
PBEAM   1002    913     11.601900.4894331.529e+0        0.024000
PBEAM   1003    903     3.8767280.1770651.029e+0        0.106497
PBEAM   1004    903     3.8767280.1770651.029e+0        0.106497
PBEAM   1005    903     3.8767280.1770651.029e+0        0.106497
PBEAM   1006    903     3.8767280.1770651.029e+0        0.106497
PBEAM   1007    903     3.8767280.1770651.029e+0        0.106497
PBEAM   1008    903     3.8767280.1770651.029e+0        0.106497
PBEAM   1009    903     3.8767280.1770651.029e+0        0.106497
$ 910 - for spar properties; no change
$ 
$1......2.......3.......4.......5.......6.......7.......8.......
MAT1    913     90988.6484820.92        0.006140
MAT1    903     1701043.282168.8        0.006140
$              
$ Wing attach
$1------$1------$1------$1------$1------$1------$1------
CBAR    1031    301     1011    1010    0.      0.      1.
CBAR    1032    301     1010    1012    0.      0.      1.
$ $ bar properties
PBARL   301     905             BAR
$       DIM1    DIM2    NSM
        0.25    1.48
MAT1    905     2.01e+9         .25     .01265
$ POINT MASS due to wing form foam and cover fabric
CONM2   170001  1010    102     0.0     
        15.051540.0     6.326315
CONM2   170002  999012  102     0.0  
        30.103080.0     12.65263
CONM2   170003  1020    102     0.0  
        30.103080.0     12.65263
CONM2   170004  999013  102     0.0     
        30.103080.0     12.65263
CONM2   170005  1030    102     0.0  
        30.103080.0     12.65263
CONM2   170006  999014  102     0.0   
        30.103080.0     12.65263
CONM2   170007  1040    102     0.0  
        30.103080.0     12.65263
CONM2   170008  999015  102     0.0  
        30.103080.0     12.65263
CONM2   170009  1050    102     0.0  
        30.103080.0     12.65263
CONM2   170010  999016  102     0.0  
        30.103080.0     12.65263
CONM2   170011  1060    102     0.0  
        30.103080.0     12.65263
CONM2   170012  999017  102     0.0   
        30.103080.0     12.65263
CONM2   170013  1070    102     0.0  
        30.103080.0     12.65263
CONM2   170014  105     102     0.0   
        30.103080.0     12.65263
CONM2   170015  1080    102     0.0  
        30.103080.0     12.65263
CONM2   170016  1090    102     0.0   
        15.051540.0     6.326315
$ Three servos
CONM2   101     1030    102     0.1235  0.0     0.0     0.0
CONM2   102     1050    102     0.1235  0.0     0.0     0.0
CONM2   103     1070    102     0.1235  0.0     0.0     0.0    
$ flaps POINT MASS ELEMENTS
GRID    10002   102     1.03    -5.7744 0.
GRID    10003   102     1.03    -20.65440.
GRID    10004   102     1.03    -35.53440.
CONM2   402     10002   102     0.0960  0.00    -1.6000 0.0  
CONM2   403     10003   102     0.0960  0.00    -1.6000 0.0
CONM2   404     10004   102     0.0960  0.00    -1.6000 0.0    
$ Rigid bar connection
RBE2    70001   1030    123456  10102
RBE2    70002   1050    123456  10103
RBE2    70003   1070    123456  10104
RBE2    70101   10012   123456  10002
RBE2    70102   10013   123456  10003
RBE2    70103   10014   123456  10004
$
$ Very close points for spring connection for flap hinge line
GRID    10012   102     0.01    -5.7744 0.
GRID    10013   102     0.01    -20.65440.
GRID    10014   102     0.01    -35.53440.
GRID    10102   102     -0.01   -5.7744 0.
GRID    10103   102     -0.01   -20.65440.
GRID    10104   102     -0.01   -35.53440.
$
CBUSH   11002   20000   10012   10102                            102
CBUSH   11003   20000   10013   10103                            102
CBUSH   11004   20000   10014   10104                            102
PBUSH   20000   K       1.0E6   1.0E6   1.0E6   1.0E6   1.0E6    1.0E6 
$ Fictitious support at the CG for decoupled rigid modes 
SUPORT,3000,123456
$ Accelerometers
$1------$1------$1------$1------$1------$1------$1------$1------
GRID     9003            18.48   -57.23  0.0
GRID     9004            25.00   -57.23  0.0
$ GRID    9003            21.04   -56.24  0.0
$ GRID    9004            23.62   -55.20  0.0
CONM2   9003    9003            .0062   0.0     0.0     0.0
CONM2   9004    9004            .0062   0.0     0.0     0.0
RBE2    700001  999018  123456  9003
RBE2    700002  999018  123456  9004
$ CONM2 for tip attach
CONM2   105     1090            .01309  1.3     0.0     0.0
$ Referenced Coordinate Frames for control surfaces and body flaps
$ y-axis align the hinge line
$1------$2------$3------$4------$5------$6------$7------$8------$9------$0
$ --- Left body flap ---
CORD2R  101             13.64   -1.16   0.0     13.64    -1.16  1.0
        17.34   -2.75   0.0   
$ --- Left C.S.----
CORD2R  102             9.753   -16.016 0.0     9.753   -16.016 1.0
        12.34   -14.97  1.0 
$ $ --- Right body flap ---
$ CORD2R  201             13.64    1.16   0.0     13.64    1.16   1.0
$         17.34   2.75    0.0
$ $ --- Right C.S.  ---
$ CORD2R  202             9.753    16.016 0.0     9.753    16.016 1.0
$         12.34    14.97  1.0		
ENDDATA 6741254d
$
