$TITLE   = MSC.NASTRAN JOB CREATED ON 20-FEB-15 AT 15:37:03                    1
$SUBTITLE=DEFAULT                                                              2
$LABEL   =                                                                     3
$EIGENVECTOR                                                                   4
$REAL OUTPUT                                                                   5
$SUBCASE ID =           1                                                      6
$EIGENVALUE =  0.0000000E+00  MODE =     1                                     7
         1       G      5.292670E+00      1.309976E-13      0.000000E+00       8
-CONT-                  0.000000E+00      0.000000E+00     -1.513333E-13       9
         2       G      5.292670E+00     -5.696755E-13      0.000000E+00      10
-CONT-                  0.000000E+00      0.000000E+00     -1.513333E-13      11
         3       G      5.292670E+00     -4.372569E-13      0.000000E+00      12
-CONT-                  0.000000E+00      0.000000E+00     -1.892821E-13      13
         4       G      5.292670E+00     -1.315526E-12      0.000000E+00      14
-CONT-                  0.000000E+00      0.000000E+00     -1.892821E-13      15
         5       G      5.292670E+00     -1.109146E-12      0.000000E+00      16
-CONT-                  0.000000E+00      0.000000E+00     -2.290097E-13      17
         6       G      5.292670E+00     -2.171750E-12      0.000000E+00      18
-CONT-                  0.000000E+00      0.000000E+00     -2.290097E-13      19
         7       G      5.292670E+00     -1.914576E-12      0.000000E+00      20
-CONT-                  0.000000E+00      0.000000E+00     -2.766515E-13      21
         8       G      5.292670E+00     -3.195472E-12      0.000000E+00      22
-CONT-                  0.000000E+00      0.000000E+00     -2.766515E-13      23
         9       G      5.292670E+00     -2.917788E-12      0.000000E+00      24
-CONT-                  0.000000E+00      0.000000E+00     -3.183347E-13      25
        10       G      5.292670E+00     -4.394861E-12      0.000000E+00      26
-CONT-                  0.000000E+00      0.000000E+00     -3.183347E-13      27
        11       G      5.292670E+00      6.661438E-13      0.000000E+00      28
-CONT-                  0.000000E+00      0.000000E+00     -5.931958E-13      29
        12       G      5.292670E+00     -2.080353E-12      0.000000E+00      30
-CONT-                  0.000000E+00      0.000000E+00     -5.931958E-13      31
        13       G      5.292670E+00     -1.301366E-12      0.000000E+00      32
-CONT-                  0.000000E+00      0.000000E+00     -8.584901E-13      33
        14       G      5.292670E+00     -5.284760E-12      0.000000E+00      34
-CONT-                  0.000000E+00      0.000000E+00     -8.584901E-13      35
        15       G      5.292670E+00     -4.441265E-12      0.000000E+00      36
-CONT-                  0.000000E+00      0.000000E+00     -9.359804E-13      37
        16       G      5.292670E+00     -8.784214E-12      0.000000E+00      38
-CONT-                  0.000000E+00      0.000000E+00     -9.359804E-13      39
        17       G      5.292670E+00     -7.964703E-12      0.000000E+00      40
-CONT-                  0.000000E+00      0.000000E+00     -9.532413E-13      41
        18       G      5.292670E+00     -1.237821E-11      0.000000E+00      42
-CONT-                  0.000000E+00      0.000000E+00     -9.532413E-13      43
        19       G      5.292670E+00     -1.153354E-11      0.000000E+00      44
-CONT-                  0.000000E+00      0.000000E+00     -9.439315E-13      45
        20       G      5.292670E+00     -1.591338E-11      0.000000E+00      46
-CONT-                  0.000000E+00      0.000000E+00     -9.439315E-13      47
       101       G      5.292670E+00     -3.556902E-13      0.000000E+00      48
-CONT-                  0.000000E+00      0.000000E+00     -1.513333E-13      49
       102       G      5.292670E+00     -1.047313E-12      0.000000E+00      50
-CONT-                  0.000000E+00      0.000000E+00     -1.892821E-13      51
       103       G      5.292670E+00     -1.846786E-12      0.000000E+00      52
-CONT-                  0.000000E+00      0.000000E+00     -2.290097E-13      53
       104       G      5.292670E+00     -2.804287E-12      0.000000E+00      54
-CONT-                  0.000000E+00      0.000000E+00     -2.766515E-13      55
       105       G      5.292670E+00     -3.941871E-12      0.000000E+00      56
-CONT-                  0.000000E+00      0.000000E+00     -3.183347E-13      57
       201       G      5.292670E+00     -1.241574E-12      0.000000E+00      58
-CONT-                  0.000000E+00      0.000000E+00     -5.931958E-13      59
       202       G      5.292670E+00     -4.068279E-12      0.000000E+00      60
-CONT-                  0.000000E+00      0.000000E+00     -8.584901E-13      61
       203       G      5.292670E+00     -7.456057E-12      0.000000E+00      62
-CONT-                  0.000000E+00      0.000000E+00     -9.359804E-13      63
       204       G      5.292670E+00     -1.103033E-11      0.000000E+00      64
-CONT-                  0.000000E+00      0.000000E+00     -9.532413E-13      65
       205       G      5.292670E+00     -1.457017E-11      0.000000E+00      66
-CONT-                  0.000000E+00      0.000000E+00     -9.439315E-13      67
      1000       G      0.000000E+00      0.000000E+00      0.000000E+00      68
-CONT-                  0.000000E+00      0.000000E+00      0.000000E+00      69
      1010       G      5.292670E+00      6.448959E-14      0.000000E+00      70
-CONT-                  0.000000E+00      0.000000E+00     -4.267477E-14      71
      1011       G      5.292670E+00      1.596815E-13      0.000000E+00      72
-CONT-                  0.000000E+00      0.000000E+00     -4.300322E-14      73
      1012       G      5.292670E+00     -2.248178E-15      0.000000E+00      74
-CONT-                  0.000000E+00      0.000000E+00     -6.326093E-15      75
      1013       G      5.292670E+00      2.962742E-13      0.000000E+00      76
-CONT-                  0.000000E+00      0.000000E+00     -4.267477E-14      77
      1020       G      5.292670E+00     -2.370984E-13      0.000000E+00      78
-CONT-                  0.000000E+00      0.000000E+00     -1.355163E-13      79
      1030       G      5.292670E+00     -7.859025E-13      0.000000E+00      80
-CONT-                  0.000000E+00      0.000000E+00     -1.841405E-13      81
      1040       G      5.292670E+00     -1.298257E-12      0.000000E+00      82
-CONT-                  0.000000E+00      0.000000E+00     -2.039538E-13      83
      1050       G      5.292670E+00     -1.960099E-12      0.000000E+00      84
-CONT-                  0.000000E+00      0.000000E+00     -2.345264E-13      85
      1060       G      5.292670E+00     -2.682194E-12      0.000000E+00      86
-CONT-                  0.000000E+00      0.000000E+00     -2.712162E-13      87
      1070       G      5.292670E+00     -3.489902E-12      0.000000E+00      88
-CONT-                  0.000000E+00      0.000000E+00     -3.059950E-13      89
      1080       G      5.292670E+00     -4.460615E-12      0.000000E+00      90
-CONT-                  0.000000E+00      0.000000E+00     -3.215286E-13      91
      1090       G      5.292670E+00     -4.818485E-12      0.000000E+00      92
-CONT-                  0.000000E+00      0.000000E+00     -3.213261E-13      93
      1091       G      5.292670E+00     -4.033325E-12      0.000000E+00      94
-CONT-                  0.000000E+00      0.000000E+00     -3.213261E-13      95
      1092       G      5.292670E+00     -6.841716E-12      0.000000E+00      96
-CONT-                  0.000000E+00      0.000000E+00     -3.213261E-13      97
      2000       G      0.000000E+00      0.000000E+00      0.000000E+00      98
-CONT-                  0.000000E+00      0.000000E+00      0.000000E+00      99
      2010       G      5.292670E+00      3.543661E-14      0.000000E+00     100
-CONT-                  0.000000E+00      0.000000E+00     -6.213917E-14     101
      2011       G      5.292670E+00      1.530590E-13      0.000000E+00     102
-CONT-                  0.000000E+00      0.000000E+00     -4.372486E-14     103
      2012       G      5.292670E+00     -3.592060E-15      0.000000E+00     104
-CONT-                  0.000000E+00      0.000000E+00     -6.755676E-15     105
      2013       G      5.292670E+00      3.729405E-13      0.000000E+00     106
-CONT-                  0.000000E+00      0.000000E+00     -6.213917E-14     107
      2020       G      5.292670E+00     -7.870961E-13      0.000000E+00     108
-CONT-                  0.000000E+00      0.000000E+00     -5.249511E-13     109
      2030       G      5.292670E+00     -2.945055E-12      0.000000E+00     110
-CONT-                  0.000000E+00      0.000000E+00     -7.776210E-13     111
      2040       G      5.292670E+00     -5.174151E-12      0.000000E+00     112
-CONT-                  0.000000E+00      0.000000E+00     -8.857035E-13     113
      2050       G      5.292670E+00     -7.910944E-12      0.000000E+00     114
-CONT-                  0.000000E+00      0.000000E+00     -9.432228E-13     115
      2060       G      5.292670E+00     -1.061015E-11      0.000000E+00     116
-CONT-                  0.000000E+00      0.000000E+00     -9.543798E-13     117
      2070       G      5.292670E+00     -1.322411E-11      0.000000E+00     118
-CONT-                  0.000000E+00      0.000000E+00     -9.458962E-13     119
      2080       G      5.292670E+00     -1.608909E-11      0.000000E+00     120
-CONT-                  0.000000E+00      0.000000E+00     -9.445282E-13     121
      2090       G      5.292670E+00     -1.714005E-11      0.000000E+00     122
-CONT-                  0.000000E+00      0.000000E+00     -9.442297E-13     123
      2091       G      5.292670E+00     -1.483283E-11      0.000000E+00     124
-CONT-                  0.000000E+00      0.000000E+00     -9.442297E-13     125
      2092       G      5.292670E+00     -2.308539E-11      0.000000E+00     126
-CONT-                  0.000000E+00      0.000000E+00     -9.442297E-13     127
      3000       G      5.292670E+00      1.925486E-13      0.000000E+00     128
-CONT-                  0.000000E+00      0.000000E+00     -4.313908E-14     129
      3001       G      5.292670E+00      8.633613E-13      0.000000E+00     130
-CONT-                  0.000000E+00      0.000000E+00     -4.313908E-14     131
      3002       G      5.292670E+00      4.725213E-13      0.000000E+00     132
-CONT-                  0.000000E+00      0.000000E+00     -4.313908E-14     133
      3004       G      5.292670E+00      6.132822E-14      0.000000E+00     134
-CONT-                  0.000000E+00      0.000000E+00     -2.636685E-14     135
      3005       G      5.292670E+00     -1.121064E-15      0.000000E+00     136
-CONT-                  0.000000E+00      0.000000E+00     -4.842889E-15     137
      3006       G      5.292670E+00     -3.895150E-14      0.000000E+00     138
-CONT-                  0.000000E+00      0.000000E+00     -4.664090E-15     139
      3007       G      5.292670E+00     -4.468367E-14      0.000000E+00     140
-CONT-                  0.000000E+00      0.000000E+00     -4.664090E-15     141
      3011       G      5.292670E+00     -5.594970E-12      0.000000E+00     142
-CONT-                  0.000000E+00      0.000000E+00     -3.213261E-13     143
      3012       G      5.292670E+00     -6.841716E-12      0.000000E+00     144
-CONT-                  0.000000E+00      0.000000E+00     -3.213261E-13     145
      3013       G      5.292670E+00     -5.594970E-12      0.000000E+00     146
-CONT-                  0.000000E+00      0.000000E+00     -3.213261E-13     147
      3014       G      5.292670E+00     -6.841716E-12      0.000000E+00     148
-CONT-                  0.000000E+00      0.000000E+00     -3.213261E-13     149
      4011       G      5.292670E+00     -1.942178E-11      0.000000E+00     150
-CONT-                  0.000000E+00      0.000000E+00     -9.442297E-13     151
      4012       G      5.292670E+00     -2.308539E-11      0.000000E+00     152
-CONT-                  0.000000E+00      0.000000E+00     -9.442297E-13     153
      4013       G      5.292670E+00     -1.942178E-11      0.000000E+00     154
-CONT-                  0.000000E+00      0.000000E+00     -9.442297E-13     155
      4014       G      5.292670E+00     -2.308539E-11      0.000000E+00     156
-CONT-                  0.000000E+00      0.000000E+00     -9.442297E-13     157
      5011       G      5.292670E+00     -4.057575E-14      0.000000E+00     158
-CONT-                  0.000000E+00      0.000000E+00     -5.994142E-15     159
      5012       G      5.292670E+00     -1.111163E-14      0.000000E+00     160
-CONT-                  0.000000E+00      0.000000E+00     -5.994142E-15     161
      5021       G      5.292670E+00     -4.355371E-14      0.000000E+00     162
-CONT-                  0.000000E+00      0.000000E+00     -6.342108E-15     163
      5022       G      5.292670E+00     -1.237917E-14      0.000000E+00     164
-CONT-                  0.000000E+00      0.000000E+00     -6.342108E-15     165
      6011       G      5.292670E+00     -1.082634E-12      0.000000E+00     166
-CONT-                  0.000000E+00      0.000000E+00     -1.841405E-13     167
      6012       G      5.292670E+00     -2.100749E-12      0.000000E+00     168
-CONT-                  0.000000E+00      0.000000E+00     -1.841405E-13     169
      6021       G      5.292670E+00     -4.198113E-12      0.000000E+00     170
-CONT-                  0.000000E+00      0.000000E+00     -7.776210E-13     171
      6022       G      5.292670E+00     -8.497587E-12      0.000000E+00     172
-CONT-                  0.000000E+00      0.000000E+00     -7.776210E-13     173
      7011       G      5.292670E+00     -2.338279E-12      0.000000E+00     174
-CONT-                  0.000000E+00      0.000000E+00     -2.345288E-13     175
      7012       G      5.292670E+00     -3.634992E-12      0.000000E+00     176
-CONT-                  0.000000E+00      0.000000E+00     -2.345288E-13     177
      7021       G      5.292670E+00     -9.431931E-12      0.000000E+00     178
-CONT-                  0.000000E+00      0.000000E+00     -9.432203E-13     179
      7022       G      5.292670E+00     -1.464701E-11      0.000000E+00     180
-CONT-                  0.000000E+00      0.000000E+00     -9.432203E-13     181
      8011       G      5.292670E+00     -3.983646E-12      0.000000E+00     182
-CONT-                  0.000000E+00      0.000000E+00     -3.059950E-13     183
      8012       G      5.292670E+00     -5.675496E-12      0.000000E+00     184
-CONT-                  0.000000E+00      0.000000E+00     -3.059950E-13     185
      8021       G      5.292670E+00     -1.475038E-11      0.000000E+00     186
-CONT-                  0.000000E+00      0.000000E+00     -9.458962E-13     187
      8022       G      5.292670E+00     -1.998026E-11      0.000000E+00     188
-CONT-                  0.000000E+00      0.000000E+00     -9.458962E-13     189
      9001       G      5.292670E+00      7.257476E-13      0.000000E+00     190
-CONT-                  0.000000E+00      0.000000E+00     -4.313908E-14     191
      9002       G      5.292670E+00      2.239096E-15      0.000000E+00     192
-CONT-                  0.000000E+00      0.000000E+00     -5.050986E-15     193
      9003       G      5.292670E+00     -2.915027E-12      0.000000E+00     194
-CONT-                  0.000000E+00      0.000000E+00     -3.215286E-13     195
      9004       G      5.292670E+00     -5.011394E-12      0.000000E+00     196
-CONT-                  0.000000E+00      0.000000E+00     -3.215286E-13     197
      9005       G      5.292670E+00     -1.154874E-11      0.000000E+00     198
-CONT-                  0.000000E+00      0.000000E+00     -9.445282E-13     199
      9006       G      5.292670E+00     -1.770706E-11      0.000000E+00     200
-CONT-                  0.000000E+00      0.000000E+00     -9.445282E-13     201
     10001       G      5.292670E+00     -2.929940E-14      0.000000E+00     202
-CONT-                  0.000000E+00      0.000000E+00     -5.994142E-15     203
     10002       G      5.292670E+00     -1.481210E-12      0.000000E+00     204
-CONT-                  0.000000E+00      0.000000E+00     -1.841405E-13     205
     10003       G      5.292670E+00     -2.845922E-12      0.000000E+00     206
-CONT-                  0.000000E+00      0.000000E+00     -2.345288E-13     207
     10004       G      5.292670E+00     -4.645980E-12      0.000000E+00     208
-CONT-                  0.000000E+00      0.000000E+00     -3.059950E-13     209
     10011       G      5.292670E+00     -2.037778E-14      0.000000E+00     210
-CONT-                  0.000000E+00      0.000000E+00     -5.994142E-15     211
     10012       G      5.292670E+00     -1.307082E-12      0.000000E+00     212
-CONT-                  0.000000E+00      0.000000E+00     -1.841405E-13     213
     10013       G      5.292670E+00     -2.624145E-12      0.000000E+00     214
-CONT-                  0.000000E+00      0.000000E+00     -2.345288E-13     215
     10014       G      5.292670E+00     -4.356622E-12      0.000000E+00     216
-CONT-                  0.000000E+00      0.000000E+00     -3.059950E-13     217
     10101       G      5.292670E+00     -2.026761E-14      0.000000E+00     218
-CONT-                  0.000000E+00      0.000000E+00     -5.996549E-15     219
     10102       G      5.292670E+00     -1.303667E-12      0.000000E+00     220
-CONT-                  0.000000E+00      0.000000E+00     -1.841405E-13     221
     10103       G      5.292670E+00     -2.619797E-12      0.000000E+00     222
-CONT-                  0.000000E+00      0.000000E+00     -2.345264E-13     223
     10104       G      5.292670E+00     -4.350948E-12      0.000000E+00     224
-CONT-                  0.000000E+00      0.000000E+00     -3.059950E-13     225
     13001       G      5.292670E+00      6.640588E-13      0.000000E+00     226
-CONT-                  0.000000E+00      0.000000E+00     -4.313908E-14     227
     18888       G      5.292670E+00      0.000000E+00      0.000000E+00     228
-CONT-                  0.000000E+00      0.000000E+00     -2.568989E-15     229
     20001       G      5.292670E+00     -3.162275E-14      0.000000E+00     230
-CONT-                  0.000000E+00      0.000000E+00     -6.342108E-15     231
     20002       G      5.292670E+00     -5.881291E-12      0.000000E+00     232
-CONT-                  0.000000E+00      0.000000E+00     -7.776210E-13     233
     20003       G      5.292670E+00     -1.147355E-11      0.000000E+00     234
-CONT-                  0.000000E+00      0.000000E+00     -9.432203E-13     235
     20004       G      5.292670E+00     -1.679780E-11      0.000000E+00     236
-CONT-                  0.000000E+00      0.000000E+00     -9.458962E-13     237
     20021       G      5.292670E+00     -2.218322E-14      0.000000E+00     238
-CONT-                  0.000000E+00      0.000000E+00     -6.342108E-15     239
     20022       G      5.292670E+00     -5.145951E-12      0.000000E+00     240
-CONT-                  0.000000E+00      0.000000E+00     -7.776210E-13     241
     20023       G      5.292670E+00     -1.058162E-11      0.000000E+00     242
-CONT-                  0.000000E+00      0.000000E+00     -9.432203E-13     243
     20024       G      5.292670E+00     -1.590333E-11      0.000000E+00     244
-CONT-                  0.000000E+00      0.000000E+00     -9.458962E-13     245
     20201       G      5.292670E+00     -2.206670E-14      0.000000E+00     246
-CONT-                  0.000000E+00      0.000000E+00     -6.339701E-15     247
     20202       G      5.292670E+00     -5.131533E-12      0.000000E+00     248
-CONT-                  0.000000E+00      0.000000E+00     -7.776210E-13     249
     20203       G      5.292670E+00     -1.056413E-11      0.000000E+00     250
-CONT-                  0.000000E+00      0.000000E+00     -9.432228E-13     251
     20204       G      5.292670E+00     -1.588580E-11      0.000000E+00     252
-CONT-                  0.000000E+00      0.000000E+00     -9.458962E-13     253
     28888       G      5.292670E+00      6.808536E-14      0.000000E+00     254
-CONT-                  0.000000E+00      0.000000E+00     -2.764293E-14     255
    100001       G      5.292670E+00     -1.079557E-14      0.000000E+00     256
-CONT-                  0.000000E+00      0.000000E+00     -5.996549E-15     257
    101001       G      5.292670E+00     -1.740776E-15      0.000000E+00     258
-CONT-                  0.000000E+00      0.000000E+00     -5.996549E-15     259
    200001       G      5.292670E+00     -1.205262E-14      0.000000E+00     260
-CONT-                  0.000000E+00      0.000000E+00     -6.339701E-15     261
    202002       G      5.292670E+00     -2.479673E-15      0.000000E+00     262
-CONT-                  0.000000E+00      0.000000E+00     -6.339701E-15     263
    888011       G      0.000000E+00      0.000000E+00      0.000000E+00     264
-CONT-                  0.000000E+00      0.000000E+00      0.000000E+00     265
    888012       G      0.000000E+00      0.000000E+00      0.000000E+00     266
-CONT-                  0.000000E+00      0.000000E+00      0.000000E+00     267
    888013       G      0.000000E+00      0.000000E+00      0.000000E+00     268
-CONT-                  0.000000E+00      0.000000E+00      0.000000E+00     269
    888014       G      0.000000E+00      0.000000E+00      0.000000E+00     270
-CONT-                  0.000000E+00      0.000000E+00      0.000000E+00     271
    888015       G      0.000000E+00      0.000000E+00      0.000000E+00     272
-CONT-                  0.000000E+00      0.000000E+00      0.000000E+00     273
    888016       G      0.000000E+00      0.000000E+00      0.000000E+00     274
-CONT-                  0.000000E+00      0.000000E+00      0.000000E+00     275
    888017       G      0.000000E+00      0.000000E+00      0.000000E+00     276
-CONT-                  0.000000E+00      0.000000E+00      0.000000E+00     277
    888021       G      0.000000E+00      0.000000E+00      0.000000E+00     278
-CONT-                  0.000000E+00      0.000000E+00      0.000000E+00     279
    888022       G      0.000000E+00      0.000000E+00      0.000000E+00     280
-CONT-                  0.000000E+00      0.000000E+00      0.000000E+00     281
    888023       G      0.000000E+00      0.000000E+00      0.000000E+00     282
-CONT-                  0.000000E+00      0.000000E+00      0.000000E+00     283
    888024       G      0.000000E+00      0.000000E+00      0.000000E+00     284
-CONT-                  0.000000E+00      0.000000E+00      0.000000E+00     285
    888025       G      0.000000E+00      0.000000E+00      0.000000E+00     286
-CONT-                  0.000000E+00      0.000000E+00      0.000000E+00     287
    888026       G      0.000000E+00      0.000000E+00      0.000000E+00     288
-CONT-                  0.000000E+00      0.000000E+00      0.000000E+00     289
    888027       G      0.000000E+00      0.000000E+00      0.000000E+00     290
-CONT-                  0.000000E+00      0.000000E+00      0.000000E+00     291
    999011       G      5.292670E+00      1.286409E-13      0.000000E+00     292
-CONT-                  0.000000E+00      0.000000E+00     -4.154656E-14     293
    999012       G      5.292670E+00     -5.325837E-14      0.000000E+00     294
-CONT-                  0.000000E+00      0.000000E+00     -9.181609E-14     295
    999013       G      5.292670E+00     -4.911131E-13      0.000000E+00     296
-CONT-                  0.000000E+00      0.000000E+00     -1.653813E-13     297
    999014       G      5.292670E+00     -1.038487E-12      0.000000E+00     298
-CONT-                  0.000000E+00      0.000000E+00     -1.886271E-13     299
    999015       G      5.292670E+00     -1.643483E-12      0.000000E+00     300
-CONT-                  0.000000E+00      0.000000E+00     -2.213647E-13     301
    999016       G      5.292670E+00     -2.308582E-12      0.000000E+00     302
-CONT-                  0.000000E+00      0.000000E+00     -2.523497E-13     303
    999017       G      5.292670E+00     -3.073032E-12      0.000000E+00     304
-CONT-                  0.000000E+00      0.000000E+00     -2.891595E-13     305
    999018       G      5.292670E+00     -4.204347E-12      0.000000E+00     306
-CONT-                  0.000000E+00      0.000000E+00     -3.209422E-13     307
    999021       G      5.292670E+00      1.210697E-13      0.000000E+00     308
-CONT-                  0.000000E+00      0.000000E+00     -5.113080E-14     309
    999022       G      5.292670E+00     -2.121797E-13      0.000000E+00     310
-CONT-                  0.000000E+00      0.000000E+00     -3.038449E-13     311
    999023       G      5.292670E+00     -1.764246E-12      0.000000E+00     312
-CONT-                  0.000000E+00      0.000000E+00     -6.608530E-13     313
    999024       G      5.292670E+00     -4.030810E-12      0.000000E+00     314
-CONT-                  0.000000E+00      0.000000E+00     -8.552444E-13     315
    999025       G      5.292670E+00     -6.625347E-12      0.000000E+00     316
-CONT-                  0.000000E+00      0.000000E+00     -9.189653E-13     317
    999026       G      5.292670E+00     -9.258230E-12      0.000000E+00     318
-CONT-                  0.000000E+00      0.000000E+00     -9.549358E-13     319
    999027       G      5.292670E+00     -1.192061E-11      0.000000E+00     320
-CONT-                  0.000000E+00      0.000000E+00     -9.498309E-13     321
    999028       G      5.292670E+00     -1.533791E-11      0.000000E+00     322
-CONT-                  0.000000E+00      0.000000E+00     -9.442619E-13     323
$TITLE   = MSC.NASTRAN JOB CREATED ON 20-FEB-15 AT 15:37:03                  324
$SUBTITLE=DEFAULT                                                            325
$LABEL   =                                                                   326
$EIGENVECTOR                                                                 327
$REAL OUTPUT                                                                 328
$SUBCASE ID =           1                                                    329
$EIGENVALUE =  0.0000000E+00  MODE =     2                                   330
         1       G     -1.619405E-11      5.292670E+00      0.000000E+00     331
-CONT-                  0.000000E+00      0.000000E+00     -3.231046E-12     332
         2       G     -1.015200E-11      5.292670E+00      0.000000E+00     333
-CONT-                  0.000000E+00      0.000000E+00     -3.231046E-12     334
         3       G     -5.263613E-11      5.292670E+00      0.000000E+00     335
-CONT-                  0.000000E+00      0.000000E+00     -4.365111E-12     336
         4       G     -4.447337E-11      5.292670E+00      0.000000E+00     337
-CONT-                  0.000000E+00      0.000000E+00     -4.365111E-12     338
         5       G     -9.581941E-11      5.292670E+00      0.000000E+00     339
-CONT-                  0.000000E+00      0.000000E+00     -4.875868E-12     340
         6       G     -8.665278E-11      5.292670E+00      0.000000E+00     341
-CONT-                  0.000000E+00      0.000000E+00     -4.875868E-12     342
         7       G     -1.426121E-10      5.292670E+00      0.000000E+00     343
-CONT-                  0.000000E+00      0.000000E+00     -5.172021E-12     344
         8       G     -1.328887E-10      5.292670E+00      0.000000E+00     345
-CONT-                  0.000000E+00      0.000000E+00     -5.172021E-12     346
         9       G     -1.913001E-10      5.292670E+00      0.000000E+00     347
-CONT-                  0.000000E+00      0.000000E+00     -5.290561E-12     348
        10       G     -1.814068E-10      5.292670E+00      0.000000E+00     349
-CONT-                  0.000000E+00      0.000000E+00     -5.290561E-12     350
        11       G      2.659983E-11      5.292670E+00      0.000000E+00     351
-CONT-                  0.000000E+00      0.000000E+00     -2.117938E-12     352
        12       G      2.263928E-11      5.292670E+00      0.000000E+00     353
-CONT-                  0.000000E+00      0.000000E+00     -2.117938E-12     354
        13       G      5.052448E-11      5.292670E+00      0.000000E+00     355
-CONT-                  0.000000E+00      0.000000E+00     -2.896633E-12     356
        14       G      4.510778E-11      5.292670E+00      0.000000E+00     357
-CONT-                  0.000000E+00      0.000000E+00     -2.896633E-12     358
        15       G      7.964961E-11      5.292670E+00      0.000000E+00     359
-CONT-                  0.000000E+00      0.000000E+00     -3.327590E-12     360
        16       G      7.339374E-11      5.292670E+00      0.000000E+00     361
-CONT-                  0.000000E+00      0.000000E+00     -3.327590E-12     362
        17       G      1.119109E-10      5.292670E+00      0.000000E+00     363
-CONT-                  0.000000E+00      0.000000E+00     -3.594220E-12     364
        18       G      1.051538E-10      5.292670E+00      0.000000E+00     365
-CONT-                  0.000000E+00      0.000000E+00     -3.594220E-12     366
        19       G      1.459783E-10      5.292670E+00      0.000000E+00     367
-CONT-                  0.000000E+00      0.000000E+00     -3.718728E-12     368
        20       G      1.390243E-10      5.292670E+00      0.000000E+00     369
-CONT-                  0.000000E+00      0.000000E+00     -3.718728E-12     370
       101       G     -1.199692E-11      5.292670E+00      0.000000E+00     371
-CONT-                  0.000000E+00      0.000000E+00     -3.231046E-12     372
       102       G     -4.696585E-11      5.292670E+00      0.000000E+00     373
-CONT-                  0.000000E+00      0.000000E+00     -4.365111E-12     374
       103       G     -8.945641E-11      5.292670E+00      0.000000E+00     375
-CONT-                  0.000000E+00      0.000000E+00     -4.875868E-12     376
       104       G     -1.358575E-10      5.292670E+00      0.000000E+00     377
-CONT-                  0.000000E+00      0.000000E+00     -5.172021E-12     378
       105       G     -1.844383E-10      5.292670E+00      0.000000E+00     379
-CONT-                  0.000000E+00      0.000000E+00     -5.290561E-12     380
       201       G      2.384863E-11      5.292670E+00      0.000000E+00     381
-CONT-                  0.000000E+00      0.000000E+00     -2.117938E-12     382
       202       G      4.676176E-11      5.292670E+00      0.000000E+00     383
-CONT-                  0.000000E+00      0.000000E+00     -2.896633E-12     384
       203       G      7.530710E-11      5.292670E+00      0.000000E+00     385
-CONT-                  0.000000E+00      0.000000E+00     -3.327590E-12     386
       204       G      1.072169E-10      5.292670E+00      0.000000E+00     387
-CONT-                  0.000000E+00      0.000000E+00     -3.594220E-12     388
       205       G      1.411551E-10      5.292670E+00      0.000000E+00     389
-CONT-                  0.000000E+00      0.000000E+00     -3.718728E-12     390
      1000       G      0.000000E+00      0.000000E+00      0.000000E+00     391
-CONT-                  0.000000E+00      0.000000E+00      0.000000E+00     392
      1010       G      6.761174E-12      5.292670E+00      0.000000E+00     393
-CONT-                  0.000000E+00      0.000000E+00     -3.813920E-13     394
      1011       G      6.778012E-12      5.292670E+00      0.000000E+00     395
-CONT-                  0.000000E+00      0.000000E+00     -2.765859E-13     396
      1012       G      6.934722E-12      5.292670E+00      0.000000E+00     397
-CONT-                  0.000000E+00      0.000000E+00     -4.663776E-14     398
      1013       G      6.761174E-12      5.292670E+00      0.000000E+00     399
-CONT-                  0.000000E+00      0.000000E+00     -3.813920E-13     400
      1020       G     -6.495182E-12      5.292670E+00      0.000000E+00     401
-CONT-                  0.000000E+00      0.000000E+00     -2.860422E-12     402
      1030       G     -3.309897E-11      5.292670E+00      0.000000E+00     403
-CONT-                  0.000000E+00      0.000000E+00     -4.082712E-12     404
      1040       G     -6.067818E-11      5.292670E+00      0.000000E+00     405
-CONT-                  0.000000E+00      0.000000E+00     -4.564989E-12     406
      1050       G     -9.523403E-11      5.292670E+00      0.000000E+00     407
-CONT-                  0.000000E+00      0.000000E+00     -4.924857E-12     408
      1060       G     -1.302623E-10      5.292670E+00      0.000000E+00     409
-CONT-                  0.000000E+00      0.000000E+00     -5.146919E-12     410
      1070       G     -1.656379E-10      5.292670E+00      0.000000E+00     411
-CONT-                  0.000000E+00      0.000000E+00     -5.266184E-12     412
      1080       G     -2.054163E-10      5.292670E+00      0.000000E+00     413
-CONT-                  0.000000E+00      0.000000E+00     -5.294426E-12     414
      1090       G     -2.193079E-10      5.292670E+00      0.000000E+00     415
-CONT-                  0.000000E+00      0.000000E+00     -5.294677E-12     416
      1091       G     -2.193079E-10      5.292670E+00      0.000000E+00     417
-CONT-                  0.000000E+00      0.000000E+00     -5.294677E-12     418
      1092       G     -2.193079E-10      5.292670E+00      0.000000E+00     419
-CONT-                  0.000000E+00      0.000000E+00     -5.294677E-12     420
      2000       G      0.000000E+00      0.000000E+00      0.000000E+00     421
-CONT-                  0.000000E+00      0.000000E+00      0.000000E+00     422
      2010       G      1.142036E-11      5.292670E+00      0.000000E+00     423
-CONT-                  0.000000E+00      0.000000E+00     -3.243393E-13     424
      2011       G      1.141452E-11      5.292670E+00      0.000000E+00     425
-CONT-                  0.000000E+00      0.000000E+00     -2.744947E-13     426
      2012       G      1.126524E-11      5.292670E+00      0.000000E+00     427
-CONT-                  0.000000E+00      0.000000E+00     -4.533664E-14     428
      2013       G      1.142036E-11      5.292670E+00      0.000000E+00     429
-CONT-                  0.000000E+00      0.000000E+00     -3.243393E-13     430
      2020       G      2.022554E-11      5.292670E+00      0.000000E+00     431
-CONT-                  0.000000E+00      0.000000E+00     -1.883860E-12     432
      2030       G      3.764978E-11      5.292670E+00      0.000000E+00     433
-CONT-                  0.000000E+00      0.000000E+00     -2.683112E-12     434
      2040       G      5.588373E-11      5.292670E+00      0.000000E+00     435
-CONT-                  0.000000E+00      0.000000E+00     -3.063604E-12     436
      2050       G      7.924333E-11      5.292670E+00      0.000000E+00     437
-CONT-                  0.000000E+00      0.000000E+00     -3.371069E-12     438
      2060       G      1.033398E-10      5.292670E+00      0.000000E+00     439
-CONT-                  0.000000E+00      0.000000E+00     -3.570046E-12     440
      2070       G      1.279687E-10      5.292670E+00      0.000000E+00     441
-CONT-                  0.000000E+00      0.000000E+00     -3.690046E-12     442
      2080       G      1.559069E-10      5.292670E+00      0.000000E+00     443
-CONT-                  0.000000E+00      0.000000E+00     -3.726183E-12     444
      2090       G      1.656842E-10      5.292670E+00      0.000000E+00     445
-CONT-                  0.000000E+00      0.000000E+00     -3.726265E-12     446
      2091       G      1.656842E-10      5.292670E+00      0.000000E+00     447
-CONT-                  0.000000E+00      0.000000E+00     -3.726265E-12     448
      2092       G      1.656842E-10      5.292670E+00      0.000000E+00     449
-CONT-                  0.000000E+00      0.000000E+00     -3.726265E-12     450
      3000       G      9.206880E-12      5.292670E+00      0.000000E+00     451
-CONT-                  0.000000E+00      0.000000E+00     -2.734197E-13     452
      3001       G      9.206880E-12      5.292670E+00      0.000000E+00     453
-CONT-                  0.000000E+00      0.000000E+00     -3.110845E-13     454
      3002       G      9.206880E-12      5.292670E+00      0.000000E+00     455
-CONT-                  0.000000E+00      0.000000E+00     -3.034320E-13     456
      3004       G      9.206836E-12      5.292670E+00      0.000000E+00     457
-CONT-                  0.000000E+00      0.000000E+00     -1.188776E-13     458
      3005       G      9.206779E-12      5.292670E+00      0.000000E+00     459
-CONT-                  0.000000E+00      0.000000E+00     -3.578903E-14     460
      3006       G      9.206779E-12      5.292670E+00      0.000000E+00     461
-CONT-                  0.000000E+00      0.000000E+00     -4.419931E-14     462
      3007       G      9.206779E-12      5.292670E+00      0.000000E+00     463
-CONT-                  0.000000E+00      0.000000E+00     -4.352074E-14     464
      3011       G     -2.193079E-10      5.292670E+00      0.000000E+00     465
-CONT-                  0.000000E+00      0.000000E+00     -5.294677E-12     466
      3012       G     -2.193079E-10      5.292670E+00      0.000000E+00     467
-CONT-                  0.000000E+00      0.000000E+00     -5.294677E-12     468
      3013       G     -2.193079E-10      5.292670E+00      0.000000E+00     469
-CONT-                  0.000000E+00      0.000000E+00     -5.294677E-12     470
      3014       G     -2.193079E-10      5.292670E+00      0.000000E+00     471
-CONT-                  0.000000E+00      0.000000E+00     -5.294677E-12     472
      4011       G      1.656842E-10      5.292670E+00      0.000000E+00     473
-CONT-                  0.000000E+00      0.000000E+00     -3.726265E-12     474
      4012       G      1.656842E-10      5.292670E+00      0.000000E+00     475
-CONT-                  0.000000E+00      0.000000E+00     -3.726265E-12     476
      4013       G      1.656842E-10      5.292670E+00      0.000000E+00     477
-CONT-                  0.000000E+00      0.000000E+00     -3.726265E-12     478
      4014       G      1.656842E-10      5.292670E+00      0.000000E+00     479
-CONT-                  0.000000E+00      0.000000E+00     -3.726265E-12     480
      5011       G      8.075233E-12      5.292670E+00      0.000000E+00     481
-CONT-                  0.000000E+00      0.000000E+00     -4.416009E-14     482
      5012       G      7.570106E-12      5.292670E+00      0.000000E+00     483
-CONT-                  0.000000E+00      0.000000E+00     -4.416009E-14     484
      5021       G      1.022462E-11      5.292670E+00      0.000000E+00     485
-CONT-                  0.000000E+00      0.000000E+00     -4.310197E-14     486
      5022       G      1.071764E-11      5.292670E+00      0.000000E+00     487
-CONT-                  0.000000E+00      0.000000E+00     -4.310197E-14     488
      6011       G     -5.009530E-12      5.292670E+00      0.000000E+00     489
-CONT-                  0.000000E+00      0.000000E+00     -4.082712E-12     490
      6012       G     -6.083867E-11      5.292670E+00      0.000000E+00     491
-CONT-                  0.000000E+00      0.000000E+00     -4.082712E-12     492
      6021       G      1.918971E-11      5.292670E+00      0.000000E+00     493
-CONT-                  0.000000E+00      0.000000E+00     -2.683112E-12     494
      6022       G      5.587999E-11      5.292670E+00      0.000000E+00     495
-CONT-                  0.000000E+00      0.000000E+00     -2.683112E-12     496
      7011       G     -6.134830E-11      5.292670E+00      0.000000E+00     497
-CONT-                  0.000000E+00      0.000000E+00     -4.924857E-12     498
      7012       G     -1.286934E-10      5.292670E+00      0.000000E+00     499
-CONT-                  0.000000E+00      0.000000E+00     -4.924857E-12     500
      7021       G      5.604851E-11      5.292670E+00      0.000000E+00     501
-CONT-                  0.000000E+00      0.000000E+00     -3.371069E-12     502
      7022       G      1.021463E-10      5.292670E+00      0.000000E+00     503
-CONT-                  0.000000E+00      0.000000E+00     -3.371069E-12     504
      8011       G     -1.294012E-10      5.292670E+00      0.000000E+00     505
-CONT-                  0.000000E+00      0.000000E+00     -5.266184E-12     506
      8012       G     -2.014137E-10      5.292670E+00      0.000000E+00     507
-CONT-                  0.000000E+00      0.000000E+00     -5.266184E-12     508
      8021       G      1.025775E-10      5.292670E+00      0.000000E+00     509
-CONT-                  0.000000E+00      0.000000E+00     -3.690046E-12     510
      8022       G      1.530371E-10      5.292670E+00      0.000000E+00     511
-CONT-                  0.000000E+00      0.000000E+00     -3.690046E-12     512
      9001       G      9.206880E-12      5.292670E+00      0.000000E+00     513
-CONT-                  0.000000E+00      0.000000E+00     -3.099743E-13     514
      9002       G      9.206792E-12      5.292670E+00      0.000000E+00     515
-CONT-                  0.000000E+00      0.000000E+00     -1.656472E-14     516
      9003       G     -2.033197E-10      5.292670E+00      0.000000E+00     517
-CONT-                  0.000000E+00      0.000000E+00     -5.294426E-12     518
      9004       G     -2.033197E-10      5.292670E+00      0.000000E+00     519
-CONT-                  0.000000E+00      0.000000E+00     -5.294426E-12     520
      9005       G      1.544317E-10      5.292670E+00      0.000000E+00     521
-CONT-                  0.000000E+00      0.000000E+00     -3.726183E-12     522
      9006       G      1.544317E-10      5.292670E+00      0.000000E+00     523
-CONT-                  0.000000E+00      0.000000E+00     -3.726183E-12     524
     10001       G      7.881914E-12      5.292670E+00      0.000000E+00     525
-CONT-                  0.000000E+00      0.000000E+00     -4.416009E-14     526
     10002       G     -2.686579E-11      5.292670E+00      0.000000E+00     527
-CONT-                  0.000000E+00      0.000000E+00     -4.082712E-12     528
     10003       G     -8.771286E-11      5.292670E+00      0.000000E+00     529
-CONT-                  0.000000E+00      0.000000E+00     -4.924857E-12     530
     10004       G     -1.575930E-10      5.292670E+00      0.000000E+00     531
-CONT-                  0.000000E+00      0.000000E+00     -5.266184E-12     532
     10011       G      7.910159E-12      5.292670E+00      0.000000E+00     533
-CONT-                  0.000000E+00      0.000000E+00     -4.416009E-14     534
     10012       G     -2.842679E-11      5.292670E+00      0.000000E+00     535
-CONT-                  0.000000E+00      0.000000E+00     -4.082712E-12     536
     10013       G     -8.959586E-11      5.292670E+00      0.000000E+00     537
-CONT-                  0.000000E+00      0.000000E+00     -4.924857E-12     538
     10014       G     -1.596065E-10      5.292670E+00      0.000000E+00     539
-CONT-                  0.000000E+00      0.000000E+00     -5.266184E-12     540
     10101       G      7.910507E-12      5.292670E+00      0.000000E+00     541
-CONT-                  0.000000E+00      0.000000E+00     -4.416009E-14     542
     10102       G     -2.845740E-11      5.292670E+00      0.000000E+00     543
-CONT-                  0.000000E+00      0.000000E+00     -4.082712E-12     544
     10103       G     -8.963278E-11      5.292670E+00      0.000000E+00     545
-CONT-                  0.000000E+00      0.000000E+00     -4.924857E-12     546
     10104       G     -1.596460E-10      5.292670E+00      0.000000E+00     547
-CONT-                  0.000000E+00      0.000000E+00     -5.266184E-12     548
     13001       G      9.206880E-12      5.292670E+00      0.000000E+00     549
-CONT-                  0.000000E+00      0.000000E+00     -3.108624E-13     550
     18888       G      9.206783E-12      5.292670E+00      0.000000E+00     551
-CONT-                  0.000000E+00      0.000000E+00     -1.709222E-14     552
     20001       G      1.041330E-11      5.292670E+00      0.000000E+00     553
-CONT-                  0.000000E+00      0.000000E+00     -4.310197E-14     554
     20002       G      3.355340E-11      5.292670E+00      0.000000E+00     555
-CONT-                  0.000000E+00      0.000000E+00     -2.683112E-12     556
     20003       G      7.409508E-11      5.292670E+00      0.000000E+00     557
-CONT-                  0.000000E+00      0.000000E+00     -3.371069E-12     558
     20004       G      1.223316E-10      5.292670E+00      0.000000E+00     559
-CONT-                  0.000000E+00      0.000000E+00     -3.690046E-12     560
     20021       G      1.038574E-11      5.292670E+00      0.000000E+00     561
-CONT-                  0.000000E+00      0.000000E+00     -4.310197E-14     562
     20022       G      3.457927E-11      5.292670E+00      0.000000E+00     563
-CONT-                  0.000000E+00      0.000000E+00     -2.683112E-12     564
     20023       G      7.538399E-11      5.292670E+00      0.000000E+00     565
-CONT-                  0.000000E+00      0.000000E+00     -3.371069E-12     566
     20024       G      1.237425E-10      5.292670E+00      0.000000E+00     567
-CONT-                  0.000000E+00      0.000000E+00     -3.690046E-12     568
     20201       G      1.038540E-11      5.292670E+00      0.000000E+00     569
-CONT-                  0.000000E+00      0.000000E+00     -4.310197E-14     570
     20202       G      3.459939E-11      5.292670E+00      0.000000E+00     571
-CONT-                  0.000000E+00      0.000000E+00     -2.683112E-12     572
     20203       G      7.540926E-11      5.292670E+00      0.000000E+00     573
-CONT-                  0.000000E+00      0.000000E+00     -3.371069E-12     574
     20204       G      1.237702E-10      5.292670E+00      0.000000E+00     575
-CONT-                  0.000000E+00      0.000000E+00     -3.690046E-12     576
     28888       G      9.206838E-12      5.292670E+00      0.000000E+00     577
-CONT-                  0.000000E+00      0.000000E+00     -1.252332E-13     578
    100001       G      7.940482E-12      5.292670E+00      0.000000E+00     579
-CONT-                  0.000000E+00      0.000000E+00     -4.416009E-14     580
    101001       G      7.969135E-12      5.292670E+00      0.000000E+00     581
-CONT-                  0.000000E+00      0.000000E+00     -4.416009E-14     582
    200001       G      1.035614E-11      5.292670E+00      0.000000E+00     583
-CONT-                  0.000000E+00      0.000000E+00     -4.310197E-14     584
    202002       G      1.032817E-11      5.292670E+00      0.000000E+00     585
-CONT-                  0.000000E+00      0.000000E+00     -4.310197E-14     586
    888011       G      0.000000E+00      0.000000E+00      0.000000E+00     587
-CONT-                  0.000000E+00      0.000000E+00      0.000000E+00     588
    888012       G      0.000000E+00      0.000000E+00      0.000000E+00     589
-CONT-                  0.000000E+00      0.000000E+00      0.000000E+00     590
    888013       G      0.000000E+00      0.000000E+00      0.000000E+00     591
-CONT-                  0.000000E+00      0.000000E+00      0.000000E+00     592
    888014       G      0.000000E+00      0.000000E+00      0.000000E+00     593
-CONT-                  0.000000E+00      0.000000E+00      0.000000E+00     594
    888015       G      0.000000E+00      0.000000E+00      0.000000E+00     595
-CONT-                  0.000000E+00      0.000000E+00      0.000000E+00     596
    888016       G      0.000000E+00      0.000000E+00      0.000000E+00     597
-CONT-                  0.000000E+00      0.000000E+00      0.000000E+00     598
    888017       G      0.000000E+00      0.000000E+00      0.000000E+00     599
-CONT-                  0.000000E+00      0.000000E+00      0.000000E+00     600
    888021       G      0.000000E+00      0.000000E+00      0.000000E+00     601
-CONT-                  0.000000E+00      0.000000E+00      0.000000E+00     602
    888022       G      0.000000E+00      0.000000E+00      0.000000E+00     603
-CONT-                  0.000000E+00      0.000000E+00      0.000000E+00     604
    888023       G      0.000000E+00      0.000000E+00      0.000000E+00     605
-CONT-                  0.000000E+00      0.000000E+00      0.000000E+00     606
    888024       G      0.000000E+00      0.000000E+00      0.000000E+00     607
-CONT-                  0.000000E+00      0.000000E+00      0.000000E+00     608
    888025       G      0.000000E+00      0.000000E+00      0.000000E+00     609
-CONT-                  0.000000E+00      0.000000E+00      0.000000E+00     610
    888026       G      0.000000E+00      0.000000E+00      0.000000E+00     611
-CONT-                  0.000000E+00      0.000000E+00      0.000000E+00     612
    888027       G      0.000000E+00      0.000000E+00      0.000000E+00     613
-CONT-                  0.000000E+00      0.000000E+00      0.000000E+00     614
    999011       G      8.091074E-12      5.292670E+00      0.000000E+00     615
-CONT-                  0.000000E+00      0.000000E+00     -3.178393E-13     616
    999012       G      2.292760E-12      5.292670E+00      0.000000E+00     617
-CONT-                  0.000000E+00      0.000000E+00     -1.722030E-12     618
    999013       G     -1.842931E-11      5.292670E+00      0.000000E+00     619
-CONT-                  0.000000E+00      0.000000E+00     -3.565976E-12     620
    999014       G     -4.651140E-11      5.292670E+00      0.000000E+00     621
-CONT-                  0.000000E+00      0.000000E+00     -4.358541E-12     622
    999015       G     -7.904266E-11      5.292670E+00      0.000000E+00     623
-CONT-                  0.000000E+00      0.000000E+00     -4.778063E-12     624
    999016       G     -1.125424E-10      5.292670E+00      0.000000E+00     625
-CONT-                  0.000000E+00      0.000000E+00     -5.048182E-12     626
    999017       G     -1.478299E-10      5.292670E+00      0.000000E+00     627
-CONT-                  0.000000E+00      0.000000E+00     -5.218569E-12     628
    999018       G     -1.951902E-10      5.292670E+00      0.000000E+00     629
-CONT-                  0.000000E+00      0.000000E+00     -5.294334E-12     630
    999021       G      1.026198E-11      5.292670E+00      0.000000E+00     631
-CONT-                  0.000000E+00      0.000000E+00     -2.893303E-13     632
    999022       G      1.445959E-11      5.292670E+00      0.000000E+00     633
-CONT-                  0.000000E+00      0.000000E+00     -1.159238E-12     634
    999023       G      2.806242E-11      5.292670E+00      0.000000E+00     635
-CONT-                  0.000000E+00      0.000000E+00     -2.334020E-12     636
    999024       G      4.646267E-11      5.292670E+00      0.000000E+00     637
-CONT-                  0.000000E+00      0.000000E+00     -2.890005E-12     638
    999025       G      6.824106E-11      5.292670E+00      0.000000E+00     639
-CONT-                  0.000000E+00      0.000000E+00     -3.242361E-12     640
    999026       G      9.110907E-11      5.292670E+00      0.000000E+00     641
-CONT-                  0.000000E+00      0.000000E+00     -3.480652E-12     642
    999027       G      1.155366E-10      5.292670E+00      0.000000E+00     643
-CONT-                  0.000000E+00      0.000000E+00     -3.638965E-12     644
    999028       G      1.487135E-10      5.292670E+00      0.000000E+00     645
-CONT-                  0.000000E+00      0.000000E+00     -3.724352E-12     646
$TITLE   = MSC.NASTRAN JOB CREATED ON 20-FEB-15 AT 15:37:03                  647
$SUBTITLE=DEFAULT                                                            648
$LABEL   =                                                                   649
$EIGENVECTOR                                                                 650
$REAL OUTPUT                                                                 651
$SUBCASE ID =           1                                                    652
$EIGENVALUE =  0.0000000E+00  MODE =     3                                   653
         1       G      0.000000E+00      0.000000E+00      5.292670E+00     654
-CONT-                 -1.985756E-11     -8.242525E-12      0.000000E+00     655
         2       G      0.000000E+00      0.000000E+00      5.292670E+00     656
-CONT-                 -1.985756E-11     -8.242525E-12      0.000000E+00     657
         3       G      0.000000E+00      0.000000E+00      5.292670E+00     658
-CONT-                 -2.238843E-11     -1.024263E-11      0.000000E+00     659
         4       G      0.000000E+00      0.000000E+00      5.292670E+00     660
-CONT-                 -2.238843E-11     -1.024263E-11      0.000000E+00     661
         5       G      0.000000E+00      0.000000E+00      5.292670E+00     662
-CONT-                 -2.213601E-11     -9.815023E-12      0.000000E+00     663
         6       G      0.000000E+00      0.000000E+00      5.292670E+00     664
-CONT-                 -2.213601E-11     -9.815023E-12      0.000000E+00     665
         7       G      0.000000E+00      0.000000E+00      5.292670E+00     666
-CONT-                 -2.202878E-11     -9.563978E-12      0.000000E+00     667
         8       G      0.000000E+00      0.000000E+00      5.292670E+00     668
-CONT-                 -2.202878E-11     -9.563978E-12      0.000000E+00     669
         9       G      0.000000E+00      0.000000E+00      5.292670E+00     670
-CONT-                 -2.201084E-11     -9.422081E-12      0.000000E+00     671
        10       G      0.000000E+00      0.000000E+00      5.292670E+00     672
-CONT-                 -2.201084E-11     -9.422081E-12      0.000000E+00     673
        11       G      0.000000E+00      0.000000E+00      5.292670E+00     674
-CONT-                  2.712048E-11     -9.430145E-12      0.000000E+00     675
        12       G      0.000000E+00      0.000000E+00      5.292670E+00     676
-CONT-                  2.712048E-11     -9.430145E-12      0.000000E+00     677
        13       G      0.000000E+00      0.000000E+00      5.292670E+00     678
-CONT-                  3.252493E-11     -9.564290E-12      0.000000E+00     679
        14       G      0.000000E+00      0.000000E+00      5.292670E+00     680
-CONT-                  3.252493E-11     -9.564290E-12      0.000000E+00     681
        15       G      0.000000E+00      0.000000E+00      5.292670E+00     682
-CONT-                  3.340324E-11     -1.025923E-11      0.000000E+00     683
        16       G      0.000000E+00      0.000000E+00      5.292670E+00     684
-CONT-                  3.340324E-11     -1.025923E-11      0.000000E+00     685
        17       G      0.000000E+00      0.000000E+00      5.292670E+00     686
-CONT-                  3.366672E-11     -1.055655E-11      0.000000E+00     687
        18       G      0.000000E+00      0.000000E+00      5.292670E+00     688
-CONT-                  3.366672E-11     -1.055655E-11      0.000000E+00     689
        19       G      0.000000E+00      0.000000E+00      5.292670E+00     690
-CONT-                  3.370932E-11     -1.073651E-11      0.000000E+00     691
        20       G      0.000000E+00      0.000000E+00      5.292670E+00     692
-CONT-                  3.370932E-11     -1.073651E-11      0.000000E+00     693
       101       G      0.000000E+00      0.000000E+00      5.292670E+00     694
-CONT-                 -1.985756E-11     -8.242525E-12      0.000000E+00     695
       102       G      0.000000E+00      0.000000E+00      5.292670E+00     696
-CONT-                 -2.238843E-11     -1.024263E-11      0.000000E+00     697
       103       G      0.000000E+00      0.000000E+00      5.292670E+00     698
-CONT-                 -2.213601E-11     -9.815023E-12      0.000000E+00     699
       104       G      0.000000E+00      0.000000E+00      5.292670E+00     700
-CONT-                 -2.202878E-11     -9.563978E-12      0.000000E+00     701
       105       G      0.000000E+00      0.000000E+00      5.292670E+00     702
-CONT-                 -2.201084E-11     -9.422081E-12      0.000000E+00     703
       201       G      0.000000E+00      0.000000E+00      5.292670E+00     704
-CONT-                  2.712048E-11     -9.430145E-12      0.000000E+00     705
       202       G      0.000000E+00      0.000000E+00      5.292670E+00     706
-CONT-                  3.252493E-11     -9.564290E-12      0.000000E+00     707
       203       G      0.000000E+00      0.000000E+00      5.292670E+00     708
-CONT-                  3.340324E-11     -1.025923E-11      0.000000E+00     709
       204       G      0.000000E+00      0.000000E+00      5.292670E+00     710
-CONT-                  3.366672E-11     -1.055655E-11      0.000000E+00     711
       205       G      0.000000E+00      0.000000E+00      5.292670E+00     712
-CONT-                  3.370932E-11     -1.073651E-11      0.000000E+00     713
      1000       G      0.000000E+00      0.000000E+00      0.000000E+00     714
-CONT-                  0.000000E+00      0.000000E+00      0.000000E+00     715
      1010       G      0.000000E+00      0.000000E+00      5.292670E+00     716
-CONT-                 -4.509864E-14     -8.208100E-14      0.000000E+00     717
      1011       G      0.000000E+00      0.000000E+00      5.292670E+00     718
-CONT-                  1.613158E-14     -9.805649E-14      0.000000E+00     719
      1012       G      0.000000E+00      0.000000E+00      5.292670E+00     720
-CONT-                 -6.585625E-16      6.614390E-16      0.000000E+00     721
      1013       G      0.000000E+00      0.000000E+00      5.292670E+00     722
-CONT-                 -4.509864E-14     -8.208100E-14      0.000000E+00     723
      1020       G      0.000000E+00      0.000000E+00      5.292670E+00     724
-CONT-                 -1.899681E-11     -7.632651E-12      0.000000E+00     725
      1030       G      0.000000E+00      0.000000E+00      5.292670E+00     726
-CONT-                 -2.182025E-11     -9.657646E-12      0.000000E+00     727
      1040       G      0.000000E+00      0.000000E+00      5.292670E+00     728
-CONT-                 -2.228493E-11     -1.009191E-11      0.000000E+00     729
      1050       G      0.000000E+00      0.000000E+00      5.292670E+00     730
-CONT-                 -2.212655E-11     -9.755301E-12      0.000000E+00     731
      1060       G      0.000000E+00      0.000000E+00      5.292670E+00     732
-CONT-                 -2.203832E-11     -9.586087E-12      0.000000E+00     733
      1070       G      0.000000E+00      0.000000E+00      5.292670E+00     734
-CONT-                 -2.200535E-11     -9.466307E-12      0.000000E+00     735
      1080       G      0.000000E+00      0.000000E+00      5.292670E+00     736
-CONT-                 -2.201673E-11     -9.404783E-12      0.000000E+00     737
      1090       G      0.000000E+00      0.000000E+00      5.292670E+00     738
-CONT-                 -2.201720E-11     -9.401984E-12      0.000000E+00     739
      1091       G      0.000000E+00      0.000000E+00      5.292670E+00     740
-CONT-                 -2.201720E-11     -9.401984E-12      0.000000E+00     741
      1092       G      0.000000E+00      0.000000E+00      5.292670E+00     742
-CONT-                 -2.201720E-11     -9.401984E-12      0.000000E+00     743
      2000       G      0.000000E+00      0.000000E+00      0.000000E+00     744
-CONT-                  0.000000E+00      0.000000E+00      0.000000E+00     745
      2010       G      0.000000E+00      0.000000E+00      5.292670E+00     746
-CONT-                  1.039201E-13     -5.230160E-14      0.000000E+00     747
      2011       G      0.000000E+00      0.000000E+00      5.292670E+00     748
-CONT-                  1.649940E-14     -9.387262E-14      0.000000E+00     749
      2012       G      0.000000E+00      0.000000E+00      5.292670E+00     750
-CONT-                  1.695686E-15      3.781304E-14      0.000000E+00     751
      2013       G      0.000000E+00      0.000000E+00      5.292670E+00     752
-CONT-                  1.039201E-13     -5.230160E-14      0.000000E+00     753
      2020       G      0.000000E+00      0.000000E+00      5.292670E+00     754
-CONT-                  2.565246E-11     -9.197231E-12      0.000000E+00     755
      2030       G      0.000000E+00      0.000000E+00      5.292670E+00     756
-CONT-                  3.092386E-11     -9.641928E-12      0.000000E+00     757
      2040       G      0.000000E+00      0.000000E+00      5.292670E+00     758
-CONT-                  3.294948E-11     -9.853281E-12      0.000000E+00     759
      2050       G      0.000000E+00      0.000000E+00      5.292670E+00     760
-CONT-                  3.344408E-11     -1.030238E-11      0.000000E+00     761
      2060       G      0.000000E+00      0.000000E+00      5.292670E+00     762
-CONT-                  3.364946E-11     -1.052324E-11      0.000000E+00     763
      2070       G      0.000000E+00      0.000000E+00      5.292670E+00     764
-CONT-                  3.369706E-11     -1.071291E-11      0.000000E+00     765
      2080       G      0.000000E+00      0.000000E+00      5.292670E+00     766
-CONT-                  3.371140E-11     -1.075356E-11      0.000000E+00     767
      2090       G      0.000000E+00      0.000000E+00      5.292670E+00     768
-CONT-                  3.371177E-11     -1.075561E-11      0.000000E+00     769
      2091       G      0.000000E+00      0.000000E+00      5.292670E+00     770
-CONT-                  3.371177E-11     -1.075561E-11      0.000000E+00     771
      2092       G      0.000000E+00      0.000000E+00      5.292670E+00     772
-CONT-                  3.371177E-11     -1.075561E-11      0.000000E+00     773
      3000       G      0.000000E+00      0.000000E+00      5.292670E+00     774
-CONT-                  1.570342E-14     -7.638858E-14      0.000000E+00     775
      3001       G      0.000000E+00      0.000000E+00      5.292670E+00     776
-CONT-                  1.570342E-14     -1.012523E-13      0.000000E+00     777
      3002       G      0.000000E+00      0.000000E+00      5.292670E+00     778
-CONT-                  1.570342E-14     -9.636688E-14      0.000000E+00     779
      3004       G      0.000000E+00      0.000000E+00      5.292670E+00     780
-CONT-                  8.542816E-15     -5.707618E-14      0.000000E+00     781
      3005       G      0.000000E+00      0.000000E+00      5.292670E+00     782
-CONT-                  1.372901E-15     -2.598744E-16      0.000000E+00     783
      3006       G      0.000000E+00      0.000000E+00      5.292670E+00     784
-CONT-                  1.372901E-15      3.767265E-15      0.000000E+00     785
      3007       G      0.000000E+00      0.000000E+00      5.292670E+00     786
-CONT-                  1.372901E-15      3.552714E-15      0.000000E+00     787
      3011       G     -5.171091E-11      1.210946E-10      5.292670E+00     788
-CONT-                 -2.201720E-11     -9.401984E-12      0.000000E+00     789
      3012       G     -5.171091E-11      1.210946E-10      5.292670E+00     790
-CONT-                 -2.201720E-11     -9.401984E-12      0.000000E+00     791
      3013       G      5.171091E-11     -1.210946E-10      5.292670E+00     792
-CONT-                 -2.201720E-11     -9.401984E-12      0.000000E+00     793
      3014       G      5.171091E-11     -1.210946E-10      5.292670E+00     794
-CONT-                 -2.201720E-11     -9.401984E-12      0.000000E+00     795
      4011       G     -5.915585E-11     -1.854147E-10      5.292670E+00     796
-CONT-                  3.371177E-11     -1.075561E-11      0.000000E+00     797
      4012       G     -5.915585E-11     -1.854147E-10      5.292670E+00     798
-CONT-                  3.371177E-11     -1.075561E-11      0.000000E+00     799
      4013       G      5.915585E-11      1.854147E-10      5.292670E+00     800
-CONT-                  3.371177E-11     -1.075561E-11      0.000000E+00     801
      4014       G      5.915585E-11      1.854147E-10      5.292670E+00     802
-CONT-                  3.371177E-11     -1.075561E-11      0.000000E+00     803
      5011       G      0.000000E+00      0.000000E+00      5.292670E+00     804
-CONT-                 -4.889052E-16      2.466842E-16      0.000000E+00     805
      5012       G      0.000000E+00      0.000000E+00      5.292670E+00     806
-CONT-                 -4.889052E-16      2.466842E-16      0.000000E+00     807
      5021       G      0.000000E+00      0.000000E+00      5.292670E+00     808
-CONT-                  1.393265E-15      2.067346E-14      0.000000E+00     809
      5022       G      0.000000E+00      0.000000E+00      5.292670E+00     810
-CONT-                  1.393265E-15      2.067346E-14      0.000000E+00     811
      6011       G      0.000000E+00      0.000000E+00      5.292670E+00     812
-CONT-                 -2.182025E-11     -9.657646E-12      0.000000E+00     813
      6012       G      0.000000E+00      0.000000E+00      5.292670E+00     814
-CONT-                 -2.182025E-11     -9.657646E-12      0.000000E+00     815
      6021       G      0.000000E+00      0.000000E+00      5.292670E+00     816
-CONT-                  3.092386E-11     -9.641928E-12      0.000000E+00     817
      6022       G      0.000000E+00      0.000000E+00      5.292670E+00     818
-CONT-                  3.092386E-11     -9.641928E-12      0.000000E+00     819
      7011       G      0.000000E+00      0.000000E+00      5.292670E+00     820
-CONT-                 -2.212655E-11     -9.755301E-12      0.000000E+00     821
      7012       G      0.000000E+00      0.000000E+00      5.292670E+00     822
-CONT-                 -2.212655E-11     -9.755301E-12      0.000000E+00     823
      7021       G      0.000000E+00      0.000000E+00      5.292670E+00     824
-CONT-                  3.344408E-11     -1.030238E-11      0.000000E+00     825
      7022       G      0.000000E+00      0.000000E+00      5.292670E+00     826
-CONT-                  3.344408E-11     -1.030238E-11      0.000000E+00     827
      8011       G      0.000000E+00      0.000000E+00      5.292670E+00     828
-CONT-                 -2.200535E-11     -9.466298E-12      0.000000E+00     829
      8012       G      0.000000E+00      0.000000E+00      5.292670E+00     830
-CONT-                 -2.200535E-11     -9.466298E-12      0.000000E+00     831
      8021       G      0.000000E+00      0.000000E+00      5.292670E+00     832
-CONT-                  3.369706E-11     -1.071290E-11      0.000000E+00     833
      8022       G      0.000000E+00      0.000000E+00      5.292670E+00     834
-CONT-                  3.369706E-11     -1.071290E-11      0.000000E+00     835
      9001       G      0.000000E+00      0.000000E+00      5.292670E+00     836
-CONT-                  1.570342E-14     -1.010303E-13      0.000000E+00     837
      9002       G      0.000000E+00      0.000000E+00      5.292670E+00     838
-CONT-                  3.264421E-15     -1.620926E-14      0.000000E+00     839
      9003       G      0.000000E+00      0.000000E+00      5.292670E+00     840
-CONT-                 -2.201673E-11     -9.404783E-12      0.000000E+00     841
      9004       G      0.000000E+00      0.000000E+00      5.292670E+00     842
-CONT-                 -2.201673E-11     -9.404783E-12      0.000000E+00     843
      9005       G      0.000000E+00      0.000000E+00      5.292670E+00     844
-CONT-                  3.371140E-11     -1.075356E-11      0.000000E+00     845
      9006       G      0.000000E+00      0.000000E+00      5.292670E+00     846
-CONT-                  3.371140E-11     -1.075356E-11      0.000000E+00     847
     10001       G      0.000000E+00      0.000000E+00      5.292670E+00     848
-CONT-                 -4.889052E-16      2.466842E-16      0.000000E+00     849
     10002       G      0.000000E+00      0.000000E+00      5.292670E+00     850
-CONT-                 -2.182025E-11     -9.657646E-12      0.000000E+00     851
     10003       G      0.000000E+00      0.000000E+00      5.292670E+00     852
-CONT-                 -2.212655E-11     -9.755301E-12      0.000000E+00     853
     10004       G      0.000000E+00      0.000000E+00      5.292670E+00     854
-CONT-                 -2.200535E-11     -9.466298E-12      0.000000E+00     855
     10011       G      0.000000E+00      0.000000E+00      5.292670E+00     856
-CONT-                 -4.889052E-16      2.466842E-16      0.000000E+00     857
     10012       G      0.000000E+00      0.000000E+00      5.292670E+00     858
-CONT-                 -2.182025E-11     -9.657646E-12      0.000000E+00     859
     10013       G      0.000000E+00      0.000000E+00      5.292670E+00     860
-CONT-                 -2.212655E-11     -9.755301E-12      0.000000E+00     861
     10014       G      0.000000E+00      0.000000E+00      5.292670E+00     862
-CONT-                 -2.200535E-11     -9.466298E-12      0.000000E+00     863
     10101       G      0.000000E+00      0.000000E+00      5.292670E+00     864
-CONT-                 -4.889052E-16      2.466842E-16      0.000000E+00     865
     10102       G      0.000000E+00      0.000000E+00      5.292670E+00     866
-CONT-                 -2.182025E-11     -9.657646E-12      0.000000E+00     867
     10103       G      0.000000E+00      0.000000E+00      5.292670E+00     868
-CONT-                 -2.212655E-11     -9.755301E-12      0.000000E+00     869
     10104       G      0.000000E+00      0.000000E+00      5.292670E+00     870
-CONT-                 -2.200535E-11     -9.466307E-12      0.000000E+00     871
     13001       G      0.000000E+00      0.000000E+00      5.292670E+00     872
-CONT-                  1.570342E-14     -1.010303E-13      0.000000E+00     873
     18888       G      0.000000E+00      0.000000E+00      5.292670E+00     874
-CONT-                  2.074030E-15     -5.662137E-15      0.000000E+00     875
     20001       G      0.000000E+00      0.000000E+00      5.292670E+00     876
-CONT-                  1.393265E-15      2.067346E-14      0.000000E+00     877
     20002       G      0.000000E+00      0.000000E+00      5.292670E+00     878
-CONT-                  3.092386E-11     -9.641928E-12      0.000000E+00     879
     20003       G      0.000000E+00      0.000000E+00      5.292670E+00     880
-CONT-                  3.344408E-11     -1.030238E-11      0.000000E+00     881
     20004       G      0.000000E+00      0.000000E+00      5.292670E+00     882
-CONT-                  3.369706E-11     -1.071290E-11      0.000000E+00     883
     20021       G      0.000000E+00      0.000000E+00      5.292670E+00     884
-CONT-                  1.393265E-15      2.067346E-14      0.000000E+00     885
     20022       G      0.000000E+00      0.000000E+00      5.292670E+00     886
-CONT-                  3.092386E-11     -9.641928E-12      0.000000E+00     887
     20023       G      0.000000E+00      0.000000E+00      5.292670E+00     888
-CONT-                  3.344408E-11     -1.030238E-11      0.000000E+00     889
     20024       G      0.000000E+00      0.000000E+00      5.292670E+00     890
-CONT-                  3.369706E-11     -1.071290E-11      0.000000E+00     891
     20201       G      0.000000E+00      0.000000E+00      5.292670E+00     892
-CONT-                  1.393265E-15      2.067346E-14      0.000000E+00     893
     20202       G      0.000000E+00      0.000000E+00      5.292670E+00     894
-CONT-                  3.092386E-11     -9.641928E-12      0.000000E+00     895
     20203       G      0.000000E+00      0.000000E+00      5.292670E+00     896
-CONT-                  3.344408E-11     -1.030238E-11      0.000000E+00     897
     20204       G      0.000000E+00      0.000000E+00      5.292670E+00     898
-CONT-                  3.369706E-11     -1.071291E-11      0.000000E+00     899
     28888       G      0.000000E+00      0.000000E+00      5.292670E+00     900
-CONT-                  9.022749E-15     -5.878631E-14      0.000000E+00     901
    100001       G      0.000000E+00      0.000000E+00      5.292670E+00     902
-CONT-                 -4.889052E-16      2.466842E-16      0.000000E+00     903
    101001       G      0.000000E+00      0.000000E+00      5.292670E+00     904
-CONT-                 -4.889052E-16      2.466842E-16      0.000000E+00     905
    200001       G      0.000000E+00      0.000000E+00      5.292670E+00     906
-CONT-                  1.393265E-15      2.067346E-14      0.000000E+00     907
    202002       G      0.000000E+00      0.000000E+00      5.292670E+00     908
-CONT-                  1.393265E-15      2.067346E-14      0.000000E+00     909
    888011       G      0.000000E+00      0.000000E+00      0.000000E+00     910
-CONT-                  0.000000E+00      0.000000E+00      0.000000E+00     911
    888012       G      0.000000E+00      0.000000E+00      0.000000E+00     912
-CONT-                  0.000000E+00      0.000000E+00      0.000000E+00     913
    888013       G      0.000000E+00      0.000000E+00      0.000000E+00     914
-CONT-                  0.000000E+00      0.000000E+00      0.000000E+00     915
    888014       G      0.000000E+00      0.000000E+00      0.000000E+00     916
-CONT-                  0.000000E+00      0.000000E+00      0.000000E+00     917
    888015       G      0.000000E+00      0.000000E+00      0.000000E+00     918
-CONT-                  0.000000E+00      0.000000E+00      0.000000E+00     919
    888016       G      0.000000E+00      0.000000E+00      0.000000E+00     920
-CONT-                  0.000000E+00      0.000000E+00      0.000000E+00     921
    888017       G      0.000000E+00      0.000000E+00      0.000000E+00     922
-CONT-                  0.000000E+00      0.000000E+00      0.000000E+00     923
    888021       G      0.000000E+00      0.000000E+00      0.000000E+00     924
-CONT-                  0.000000E+00      0.000000E+00      0.000000E+00     925
    888022       G      0.000000E+00      0.000000E+00      0.000000E+00     926
-CONT-                  0.000000E+00      0.000000E+00      0.000000E+00     927
    888023       G      0.000000E+00      0.000000E+00      0.000000E+00     928
-CONT-                  0.000000E+00      0.000000E+00      0.000000E+00     929
    888024       G      0.000000E+00      0.000000E+00      0.000000E+00     930
-CONT-                  0.000000E+00      0.000000E+00      0.000000E+00     931
    888025       G      0.000000E+00      0.000000E+00      0.000000E+00     932
-CONT-                  0.000000E+00      0.000000E+00      0.000000E+00     933
    888026       G      0.000000E+00      0.000000E+00      0.000000E+00     934
-CONT-                  0.000000E+00      0.000000E+00      0.000000E+00     935
    888027       G      0.000000E+00      0.000000E+00      0.000000E+00     936
-CONT-                  0.000000E+00      0.000000E+00      0.000000E+00     937
    999011       G      0.000000E+00      0.000000E+00      5.292670E+00     938
-CONT-                 -1.173132E-14     -7.990460E-14      0.000000E+00     939
    999012       G      0.000000E+00      0.000000E+00      5.292670E+00     940
-CONT-                 -1.032130E-11     -4.180844E-12      0.000000E+00     941
    999013       G      0.000000E+00      0.000000E+00      5.292670E+00     942
-CONT-                 -2.063057E-11     -8.797252E-12      0.000000E+00     943
    999014       G      0.000000E+00      0.000000E+00      5.292670E+00     944
-CONT-                 -2.238611E-11     -1.024225E-11      0.000000E+00     945
    999015       G      0.000000E+00      0.000000E+00      5.292670E+00     946
-CONT-                 -2.218020E-11     -9.909309E-12      0.000000E+00     947
    999016       G      0.000000E+00      0.000000E+00      5.292670E+00     948
-CONT-                 -2.207611E-11     -9.663825E-12      0.000000E+00     949
    999017       G      0.000000E+00      0.000000E+00      5.292670E+00     950
-CONT-                 -2.201631E-11     -9.522445E-12      0.000000E+00     951
    999018       G      0.000000E+00      0.000000E+00      5.292670E+00     952
-CONT-                 -2.201401E-11     -9.410494E-12      0.000000E+00     953
    999021       G      0.000000E+00      0.000000E+00      5.292670E+00     954
-CONT-                  5.545644E-14     -6.438210E-14      0.000000E+00     955
    999022       G      0.000000E+00      0.000000E+00      5.292670E+00     956
-CONT-                  1.375737E-11     -4.980042E-12      0.000000E+00     957
    999023       G      0.000000E+00      0.000000E+00      5.292670E+00     958
-CONT-                  2.850528E-11     -9.598876E-12      0.000000E+00     959
    999024       G      0.000000E+00      0.000000E+00      5.292670E+00     960
-CONT-                  3.250470E-11     -9.542355E-12      0.000000E+00     961
    999025       G      0.000000E+00      0.000000E+00      5.292670E+00     962
-CONT-                  3.330196E-11     -1.014061E-11      0.000000E+00     963
    999026       G      0.000000E+00      0.000000E+00      5.292670E+00     964
-CONT-                  3.356210E-11     -1.041813E-11      0.000000E+00     965
    999027       G      0.000000E+00      0.000000E+00      5.292670E+00     966
-CONT-                  3.368522E-11     -1.062801E-11      0.000000E+00     967
    999028       G      0.000000E+00      0.000000E+00      5.292670E+00     968
-CONT-                  3.371454E-11     -1.074392E-11      0.000000E+00     969
$TITLE   = MSC.NASTRAN JOB CREATED ON 20-FEB-15 AT 15:37:03                  970
$SUBTITLE=DEFAULT                                                            971
$LABEL   =                                                                   972
$EIGENVECTOR                                                                 973
$REAL OUTPUT                                                                 974
$SUBCASE ID =           1                                                    975
[...]
-CONT-                  3.694053E-01     -7.554545E-01      0.000000E+00    6218
      1040       G      0.000000E+00      0.000000E+00     -5.282588E-01    6219
-CONT-                 -1.567511E-01      8.064392E-01      0.000000E+00    6220
      1050       G      0.000000E+00      0.000000E+00     -1.655045E+00    6221
-CONT-                 -3.835934E-01      9.852422E-01      0.000000E+00    6222
      1060       G      0.000000E+00      0.000000E+00      1.827719E-01    6223
-CONT-                  2.228903E-01     -9.462907E-01      0.000000E+00    6224
      1070       G      0.000000E+00      0.000000E+00      1.359630E+00    6225
-CONT-                  3.516644E-01     -1.082938E+00      0.000000E+00    6226
      1080       G      0.000000E+00      0.000000E+00     -2.577863E-01    6227
-CONT-                 -3.033698E-01      1.091239E+00      0.000000E+00    6228
      1090       G      0.000000E+00      0.000000E+00     -8.398949E-01    6229
-CONT-                 -4.137179E-01      1.414194E+00      0.000000E+00    6230
      1091       G      0.000000E+00      0.000000E+00      2.615689E+00    6231
-CONT-                 -4.137179E-01      1.414194E+00      0.000000E+00    6232
      1092       G      0.000000E+00      0.000000E+00     -9.744370E+00    6233
-CONT-                 -4.137179E-01      1.414194E+00      0.000000E+00    6234
      2000       G      0.000000E+00      0.000000E+00      0.000000E+00    6235
-CONT-                  0.000000E+00      0.000000E+00      0.000000E+00    6236
      2010       G      0.000000E+00      0.000000E+00      1.304135E-01    6237
-CONT-                  2.553923E-02      2.285704E-02      0.000000E+00    6238
      2011       G      0.000000E+00      0.000000E+00      1.564622E-01    6239
-CONT-                  1.884823E-02      7.275967E-03      0.000000E+00    6240
      2012       G      0.000000E+00      0.000000E+00      9.340083E-02    6241
-CONT-                  1.417449E-02      7.119677E-04      0.000000E+00    6242
      2013       G      0.000000E+00      0.000000E+00      2.545597E-01    6243
-CONT-                  2.553923E-02      2.285704E-02      0.000000E+00    6244
      2020       G      0.000000E+00      0.000000E+00     -8.179235E-01    6245
-CONT-                  1.998273E-01      8.272879E-01      0.000000E+00    6246
      2030       G      0.000000E+00      0.000000E+00     -1.365168E+00    6247
-CONT-                  3.692393E-01      7.551468E-01      0.000000E+00    6248
      2040       G      0.000000E+00      0.000000E+00      5.281559E-01    6249
-CONT-                 -1.567330E-01     -8.061563E-01      0.000000E+00    6250
      2050       G      0.000000E+00      0.000000E+00      1.654238E+00    6251
-CONT-                 -3.834329E-01     -9.848425E-01      0.000000E+00    6252
      2060       G      0.000000E+00      0.000000E+00     -1.827803E-01    6253
-CONT-                  2.228329E-01      9.459392E-01      0.000000E+00    6254
      2070       G      0.000000E+00      0.000000E+00     -1.359001E+00    6255
-CONT-                  3.515306E-01      1.082499E+00      0.000000E+00    6256
      2080       G      0.000000E+00      0.000000E+00      2.577648E-01    6257
-CONT-                 -3.032766E-01     -1.090795E+00      0.000000E+00    6258
      2090       G      0.000000E+00      0.000000E+00      8.395302E-01    6259
-CONT-                 -4.135858E-01     -1.413639E+00      0.000000E+00    6260
      2091       G      0.000000E+00      0.000000E+00     -2.614697E+00    6261
-CONT-                 -4.135858E-01     -1.413639E+00      0.000000E+00    6262
      2092       G      0.000000E+00      0.000000E+00      9.740509E+00    6263
-CONT-                 -4.135858E-01     -1.413639E+00      0.000000E+00    6264
      3000       G      0.000000E+00      0.000000E+00      2.766686E-05    6265
-CONT-                  1.785897E-02      1.730788E-05      0.000000E+00    6266
      3001       G      0.000000E+00      0.000000E+00      2.970959E-04    6267
-CONT-                  1.785897E-02      1.733132E-05      0.000000E+00    6268
      3002       G      0.000000E+00      0.000000E+00      1.400789E-04    6269
-CONT-                  1.785897E-02      1.732884E-05      0.000000E+00    6270
      3004       G      0.000000E+00      0.000000E+00     -3.692799E-05    6271
-CONT-                  1.636429E-02      1.732790E-05      0.000000E+00    6272
      3005       G      0.000000E+00      0.000000E+00     -1.224263E-04    6273
-CONT-                  1.438875E-02      1.735887E-05      0.000000E+00    6274
      3006       G      0.000000E+00      0.000000E+00     -2.633609E-04    6275
-CONT-                  1.438875E-02      1.738356E-05      0.000000E+00    6276
      3007       G      0.000000E+00      0.000000E+00     -2.847254E-04    6277
-CONT-                  1.438875E-02      1.738357E-05      0.000000E+00    6278
      3011       G      7.778069E+00      2.275449E+00     -4.257296E+00    6279
-CONT-                 -4.137179E-01      1.414194E+00      0.000000E+00    6280
      3012       G      7.778069E+00      2.275449E+00     -9.744370E+00    6281
-CONT-                 -4.137179E-01      1.414194E+00      0.000000E+00    6282
      3013       G     -7.778069E+00     -2.275449E+00     -4.257296E+00    6283
-CONT-                 -4.137179E-01      1.414194E+00      0.000000E+00    6284
      3014       G     -7.778069E+00     -2.275449E+00     -9.744370E+00    6285
-CONT-                 -4.137179E-01      1.414194E+00      0.000000E+00    6286
      4011       G     -7.775015E+00      2.274722E+00      4.255593E+00    6287
-CONT-                 -4.135858E-01     -1.413639E+00      0.000000E+00    6288
      4012       G     -7.775015E+00      2.274722E+00      9.740513E+00    6289
-CONT-                 -4.135858E-01     -1.413639E+00      0.000000E+00    6290
      4013       G      7.775015E+00     -2.274722E+00      4.255593E+00    6291
-CONT-                 -4.135858E-01     -1.413639E+00      0.000000E+00    6292
      4014       G      7.775015E+00     -2.274722E+00      9.740513E+00    6293
-CONT-                 -4.135858E-01     -1.413639E+00      0.000000E+00    6294
      5011       G      0.000000E+00      0.000000E+00     -1.556814E-02    6295
-CONT-                  1.423139E-02     -3.102538E-04      0.000000E+00    6296
      5012       G      0.000000E+00      0.000000E+00     -1.798797E-01    6297
-CONT-                  1.423139E-02     -3.102538E-04      0.000000E+00    6298
      5021       G      0.000000E+00      0.000000E+00      1.509415E-02    6299
-CONT-                  1.423140E-02      3.461325E-04      0.000000E+00    6300
      5022       G      0.000000E+00      0.000000E+00      1.795822E-01    6301
-CONT-                  1.423140E-02      3.461325E-04      0.000000E+00    6302
      6011       G      0.000000E+00      0.000000E+00      5.121932E+00    6303
-CONT-                  3.689758E-01     -7.560630E-01      0.000000E+00    6304
      6012       G      0.000000E+00      0.000000E+00      4.256645E+00    6305
-CONT-                  3.689758E-01     -7.560630E-01      0.000000E+00    6306
      6021       G      0.000000E+00      0.000000E+00     -5.119604E+00    6307
-CONT-                  3.688100E-01      7.557550E-01      0.000000E+00    6308
      6022       G      0.000000E+00      0.000000E+00     -4.254880E+00    6309
-CONT-                  3.688100E-01      7.557550E-01      0.000000E+00    6310
      7011       G      0.000000E+00      0.000000E+00     -5.879533E+00    6311
-CONT-                 -3.830451E-01      9.860190E-01      0.000000E+00    6312
      7012       G      0.000000E+00      0.000000E+00     -6.093284E+00    6313
-CONT-                 -3.830451E-01      9.860190E-01      0.000000E+00    6314
      7021       G      0.000000E+00      0.000000E+00      5.876980E+00    6315
-CONT-                 -3.828849E-01     -9.856190E-01      0.000000E+00    6316
      7022       G      0.000000E+00      0.000000E+00      6.090710E+00    6317
-CONT-                 -3.828849E-01     -9.856190E-01      0.000000E+00    6318
      8011       G      0.000000E+00      0.000000E+00      5.523166E+00    6319
-CONT-                  3.511041E-01     -1.083732E+00      0.000000E+00    6320
      8012       G      0.000000E+00      0.000000E+00      6.713952E+00    6321
-CONT-                  3.511041E-01     -1.083732E+00      0.000000E+00    6322
      8021       G      0.000000E+00      0.000000E+00     -5.520921E+00    6323
-CONT-                  3.509705E-01      1.083293E+00      0.000000E+00    6324
      8022       G      0.000000E+00      0.000000E+00     -6.711103E+00    6325
-CONT-                  3.509705E-01      1.083293E+00      0.000000E+00    6326
      9001       G      0.000000E+00      0.000000E+00      2.418091E-04    6327
-CONT-                  1.785897E-02      1.733121E-05      0.000000E+00    6328
      9002       G      0.000000E+00      0.000000E+00     -9.986601E-05    6329
-CONT-                  1.490969E-02      1.734990E-05      0.000000E+00    6330
      9003       G      0.000000E+00      0.000000E+00      4.867665E+00    6331
-CONT-                 -3.033698E-01      1.091239E+00      0.000000E+00    6332
      9004       G      0.000000E+00      0.000000E+00     -2.247213E+00    6333
-CONT-                 -3.033698E-01      1.091239E+00      0.000000E+00    6334
      9005       G      0.000000E+00      0.000000E+00     -4.865620E+00    6335
-CONT-                 -3.032766E-01     -1.090795E+00      0.000000E+00    6336
      9006       G      0.000000E+00      0.000000E+00      2.246364E+00    6337
-CONT-                 -3.032766E-01     -1.090795E+00      0.000000E+00    6338
     10001       G      0.000000E+00      0.000000E+00     -7.845262E-02    6339
-CONT-                  1.423139E-02     -3.102538E-04      0.000000E+00    6340
     10002       G      0.000000E+00      0.000000E+00      4.783185E+00    6341
-CONT-                  3.689758E-01     -7.560630E-01      0.000000E+00    6342
     10003       G      0.000000E+00      0.000000E+00     -5.963213E+00    6343
-CONT-                 -3.830451E-01      9.860190E-01      0.000000E+00    6344
     10004       G      0.000000E+00      0.000000E+00      5.989340E+00    6345
-CONT-                  3.511041E-01     -1.083732E+00      0.000000E+00    6346
     10011       G      0.000000E+00      0.000000E+00     -6.981193E-02    6347
-CONT-                  1.423139E-02     -3.102538E-04      0.000000E+00    6348
     10012       G      0.000000E+00      0.000000E+00      3.927155E+00    6349
-CONT-                  3.689758E-01     -7.560630E-01      0.000000E+00    6350
     10013       G      0.000000E+00      0.000000E+00     -4.884351E+00    6351
-CONT-                 -3.830451E-01      9.860190E-01      0.000000E+00    6352
     10014       G      0.000000E+00      0.000000E+00      4.830290E+00    6353
-CONT-                  3.511041E-01     -1.083732E+00      0.000000E+00    6354
     10101       G      0.000000E+00      0.000000E+00     -6.969668E-02    6355
-CONT-                  1.421674E-02     -3.122743E-04      0.000000E+00    6356
     10102       G      0.000000E+00      0.000000E+00      3.909982E+00    6357
-CONT-                  3.694053E-01     -7.554545E-01      0.000000E+00    6358
     10103       G      0.000000E+00      0.000000E+00     -4.862702E+00    6359
-CONT-                 -3.835934E-01      9.852422E-01      0.000000E+00    6360
     10104       G      0.000000E+00      0.000000E+00      4.807058E+00    6361
-CONT-                  3.516644E-01     -1.082938E+00      0.000000E+00    6362
     13001       G      0.000000E+00      0.000000E+00      2.170255E-04    6363
-CONT-                  1.785897E-02      1.733106E-05      0.000000E+00    6364
     18888       G      0.000000E+00      0.000000E+00     -1.140950E-04    6365
-CONT-                  1.458110E-02      1.735549E-05      0.000000E+00    6366
     20001       G      0.000000E+00      0.000000E+00      7.804618E-02    6367
-CONT-                  1.423140E-02      3.461325E-04      0.000000E+00    6368
     20002       G      0.000000E+00      0.000000E+00     -4.781078E+00    6369
-CONT-                  3.688100E-01      7.557550E-01      0.000000E+00    6370
     20003       G      0.000000E+00      0.000000E+00      5.960652E+00    6371
-CONT-                 -3.828849E-01     -9.856190E-01      0.000000E+00    6372
     20004       G      0.000000E+00      0.000000E+00     -5.986859E+00    6373
-CONT-                  3.509705E-01      1.083293E+00      0.000000E+00    6374
     20021       G      0.000000E+00      0.000000E+00      6.945888E-02    6375
-CONT-                  1.423140E-02      3.461325E-04      0.000000E+00    6376
     20022       G      0.000000E+00      0.000000E+00     -3.925402E+00    6377
-CONT-                  3.688100E-01      7.557550E-01      0.000000E+00    6378
     20023       G      0.000000E+00      0.000000E+00      4.882229E+00    6379
-CONT-                 -3.828849E-01     -9.856190E-01      0.000000E+00    6380
     20024       G      0.000000E+00      0.000000E+00     -4.828275E+00    6381
-CONT-                  3.509705E-01      1.083293E+00      0.000000E+00    6382
     20201       G      0.000000E+00      0.000000E+00      6.934433E-02    6383
-CONT-                  1.421680E-02      3.481452E-04      0.000000E+00    6384
     20202       G      0.000000E+00      0.000000E+00     -3.908237E+00    6385
-CONT-                  3.692393E-01      7.551468E-01      0.000000E+00    6386
     20203       G      0.000000E+00      0.000000E+00      4.860589E+00    6387
-CONT-                 -3.834329E-01     -9.848425E-01      0.000000E+00    6388
     20204       G      0.000000E+00      0.000000E+00     -4.805053E+00    6389
-CONT-                  3.515306E-01      1.082499E+00      0.000000E+00    6390
     28888       G      0.000000E+00      0.000000E+00     -3.259621E-05    6391
-CONT-                  1.646447E-02      1.732651E-05      0.000000E+00    6392
    100001       G      0.000000E+00      0.000000E+00     -6.054025E-02    6393
-CONT-                  1.421674E-02     -3.122743E-04      0.000000E+00    6394
    101001       G      0.000000E+00      0.000000E+00     -5.178711E-02    6395
-CONT-                  1.421674E-02     -3.122743E-04      0.000000E+00    6396
    200001       G      0.000000E+00      0.000000E+00      6.024451E-02    6397
-CONT-                  1.421680E-02      3.481452E-04      0.000000E+00    6398
    202002       G      0.000000E+00      0.000000E+00      5.154549E-02    6399
-CONT-                  1.421680E-02      3.481452E-04      0.000000E+00    6400
    888011       G      0.000000E+00      0.000000E+00      0.000000E+00    6401
-CONT-                  0.000000E+00      0.000000E+00      0.000000E+00    6402
    888012       G      0.000000E+00      0.000000E+00      0.000000E+00    6403
-CONT-                  0.000000E+00      0.000000E+00      0.000000E+00    6404
    888013       G      0.000000E+00      0.000000E+00      0.000000E+00    6405
-CONT-                  0.000000E+00      0.000000E+00      0.000000E+00    6406
    888014       G      0.000000E+00      0.000000E+00      0.000000E+00    6407
-CONT-                  0.000000E+00      0.000000E+00      0.000000E+00    6408
    888015       G      0.000000E+00      0.000000E+00      0.000000E+00    6409
-CONT-                  0.000000E+00      0.000000E+00      0.000000E+00    6410
    888016       G      0.000000E+00      0.000000E+00      0.000000E+00    6411
-CONT-                  0.000000E+00      0.000000E+00      0.000000E+00    6412
    888017       G      0.000000E+00      0.000000E+00      0.000000E+00    6413
-CONT-                  0.000000E+00      0.000000E+00      0.000000E+00    6414
    888021       G      0.000000E+00      0.000000E+00      0.000000E+00    6415
-CONT-                  0.000000E+00      0.000000E+00      0.000000E+00    6416
    888022       G      0.000000E+00      0.000000E+00      0.000000E+00    6417
-CONT-                  0.000000E+00      0.000000E+00      0.000000E+00    6418
    888023       G      0.000000E+00      0.000000E+00      0.000000E+00    6419
-CONT-                  0.000000E+00      0.000000E+00      0.000000E+00    6420
    888024       G      0.000000E+00      0.000000E+00      0.000000E+00    6421
-CONT-                  0.000000E+00      0.000000E+00      0.000000E+00    6422
    888025       G      0.000000E+00      0.000000E+00      0.000000E+00    6423
-CONT-                  0.000000E+00      0.000000E+00      0.000000E+00    6424
    888026       G      0.000000E+00      0.000000E+00      0.000000E+00    6425
-CONT-                  0.000000E+00      0.000000E+00      0.000000E+00    6426
    888027       G      0.000000E+00      0.000000E+00      0.000000E+00    6427
-CONT-                  0.000000E+00      0.000000E+00      0.000000E+00    6428
    999011       G      0.000000E+00      0.000000E+00     -6.662243E-02    6429
-CONT-                  2.142318E-02     -1.156070E-02      0.000000E+00    6430
    999012       G      0.000000E+00      0.000000E+00      2.117526E-01    6431
-CONT-                 -1.737365E-03     -5.353512E-01      0.000000E+00    6432
    999013       G      0.000000E+00      0.000000E+00      1.531692E+00    6433
-CONT-                  4.090063E-01     -1.145120E+00      0.000000E+00    6434
    999014       G      0.000000E+00      0.000000E+00      5.303628E-01    6435
-CONT-                  1.287263E-01      3.486244E-02      0.000000E+00    6436
    999015       G      0.000000E+00      0.000000E+00     -1.505179E+00    6437
-CONT-                 -3.963788E-01      1.266888E+00      0.000000E+00    6438
    999016       G      0.000000E+00      0.000000E+00     -9.236494E-01    6439
-CONT-                 -1.073844E-01      2.824291E-02      0.000000E+00    6440
    999017       G      0.000000E+00      0.000000E+00      1.059354E+00    6441
-CONT-                  3.945848E-01     -1.373062E+00      0.000000E+00    6442
    999018       G      0.000000E+00      0.000000E+00      3.299925E-01    6443
-CONT-                 -1.282973E-01      5.373171E-01      0.000000E+00    6444
    999021       G      0.000000E+00      0.000000E+00      6.662487E-02    6445
-CONT-                  2.142215E-02      1.159178E-02      0.000000E+00    6446
    999022       G      0.000000E+00      0.000000E+00     -2.116307E-01    6447
-CONT-                 -1.695119E-03      5.351824E-01      0.000000E+00    6448
    999023       G      0.000000E+00      0.000000E+00     -1.530924E+00    6449
-CONT-                  4.088497E-01      1.144694E+00      0.000000E+00    6450
    999024       G      0.000000E+00      0.000000E+00     -5.300497E-01    6451
-CONT-                  1.286504E-01     -3.488129E-02      0.000000E+00    6452
    999025       G      0.000000E+00      0.000000E+00      1.504467E+00    6453
-CONT-                 -3.962341E-01     -1.266398E+00      0.000000E+00    6454
    999026       G      0.000000E+00      0.000000E+00      9.231440E-01    6455
-CONT-                 -1.073162E-01     -2.820839E-02      0.000000E+00    6456
    999027       G      0.000000E+00      0.000000E+00     -1.058934E+00    6457
-CONT-                  3.944517E-01      1.372528E+00      0.000000E+00    6458
    999028       G      0.000000E+00      0.000000E+00     -3.297550E-01    6459
-CONT-                 -1.282696E-01     -5.371260E-01      0.000000E+00    6460
