$ NASTRAN input file created by the Patran 2014.1 64-Bit input file
$ translator on September 28, 2016 at 12:59:27.
$ Direct Text Input for Nastran System Cell Section
$ Normal Modes Analysis, Database
SOL 103
CEND
TITLE = MSC.NASTRAN JOB CREATED ON 20-FEB-15 AT 15:37:03
ECHO = NONE
$ Using Nastran default values for RESVEC
SUBCASE 1
   TITLE=MSC.NASTRAN JOB CREATED ON 20-FEB-15 AT 15:37:03
   SUBTITLE=DEFAULT
   METHOD = 1
  $ VECTOR(PUNCH,SORT1,REAL)=ALL
  $ SPCFORCES(SORT1,REAL)=ALL
BEGIN BULK
PARAM    POST    0
PARAM   COUPMASS 1
$ PARAM,EXTOUT,DMIGPCH
PARAM    WTMASS .002591
PARAM    GRDPNT  18888
PARAM   PRTMAXIM YES
EIGR     1       MGIV    0.      1000.           20
         MASS
$ Elements and Element Properties for region : pbeam.201
PBEAM    201     905    .686    39.322  51.79           3.165
+
         YES    1.      .686    39.322  51.79           3.165
+
        1.      1.
$ Pset: "pbeam.201" will be imported as: "pbeam.201"
CBEAM    10002   201     1011    3000    0.      0.     1.
CBEAM    20002   201     2011    3000    0.      0.     1.
$ Elements and Element Properties for region : pbeam.202
PBEAM    202     905    .482    24.322  51.79           1.105
+
         YES    1.      .482    24.322  51.79           1.105
+
        1.      1.
$ Pset: "pbeam.202" will be imported as: "pbeam.202"
CBEAM    10031   202     1012    101001  0.      0.     1.
CBEAM    10032   202     101001  3005    0.      0.     1.
CBEAM    20031   202     2012    202002  0.      0.     1.
CBEAM    20032   202     202002  3005    0.      0.     1.
$ Elements and Element Properties for region : pbeam.301
PBEAM    301     905    .74     .1351   .0154           .5403
+
         YES    1.      .74     .1351   .0154           .5403
+
        1.      1.
$ Pset: "pbeam.301" will be imported as: "pbeam.301"
CBEAM    1031    301     1010    1011    0.      0.     1.
CBEAM    1032    301     1010    1012    0.      0.     1.
CBEAM    2031    301     2010    2011    0.      0.     1.
CBEAM    2032    301     2010    2012    0.      0.     1.
$ Elements and Element Properties for region : pbeam.1000
PBEAM    1000    100    1.02    .1009   15.29           .3275
+
         YES    1.      1.02    .1009   15.29           .3275
+
        1.      1.
$ Pset: "pbeam.1000" will be imported as: "pbeam.1000"
CBEAM    1201    1000    3000    999011  0.      0.     1.
CBEAM    1202    1000    1010    999012  0.      0.     1.
CBEAM    1204    1000    1030    999014  0.      0.     1.
CBEAM    1205    1000    1040    999015  0.      0.     1.
CBEAM    1206    1000    1050    999016  0.      0.     1.
CBEAM    1208    1000    1070    105     0.      0.     1.
CBEAM    1209    1000    1080    1090    0.      0.     1.
CBEAM    1211    1000    999011  1010    0.      0.     1.
CBEAM    1222    1000    999012  1020    0.      0.     1.
CBEAM    1233    1000    999013  1030    0.      0.     1.
CBEAM    1241    1000    999014  102     0.      0.     1.
CBEAM    1242    1000    102     1040    0.      0.     1.
CBEAM    1251    1000    999015  103     0.      0.     1.
CBEAM    1252    1000    103     1050    0.      0.     1.
CBEAM    1266    1000    999016  1060    0.      0.     1.
CBEAM    1271    1000    1060    104     0.      0.     1.
CBEAM    1272    1000    104     999017  0.      0.     1.
CBEAM    1277    1000    999017  1070    0.      0.     1.
CBEAM    1281    1000    105     999018  0.      0.     1.
CBEAM    1288    1000    999018  1080    0.      0.     1.
CBEAM    2201    1000    3000    999021  0.      0.     1.
CBEAM    2202    1000    2010    999022  0.      0.     1.
CBEAM    2204    1000    2030    999024  0.      0.     1.
CBEAM    2205    1000    2040    999025  0.      0.     1.
CBEAM    2206    1000    2050    999026  0.      0.     1.
CBEAM    2209    1000    2080    2090    0.      0.     1.
CBEAM    2221    1000    999021  2010    0.      0.     1.
CBEAM    2222    1000    999022  2020    0.      0.     1.
CBEAM    2241    1000    999024  202     0.      0.     1.
CBEAM    2242    1000    202     2040    0.      0.     1.
CBEAM    2251    1000    999025  203     0.      0.     1.
CBEAM    2252    1000    203     2050    0.      0.     1.
CBEAM    2266    1000    999026  2060    0.      0.     1.
CBEAM    2271    1000    2060    204     0.      0.     1.
CBEAM    2272    1000    204     999027  0.      0.     1.
CBEAM    2277    1000    999027  2070    0.      0.     1.
CBEAM    2281    1000    2070    205     0.      0.     1.
CBEAM    2282    1000    205     999028  0.      0.     1.
CBEAM    2288    1000    999028  2080    0.      0.     1.
CBEAM    12301   1000    1020    101     0.      0.     1.
CBEAM    12302   1000    101     999013  0.      0.     1.
CBEAM    22301   1000    2020    201     0.      0.     1.
CBEAM    22302   1000    201     999023  0.      0.     1.
CBEAM    22303   1000    999023  2030    0.      0.     1.
$ Elements and Element Properties for region : pbeam.1001
PBEAM    1001    943    20.     .5098   15.29           .2146   .080955
+
         YES    1.      20.     .5098   15.29           .2146   .080955
+
        1.      1.
$ Pset: "pbeam.1001" will be imported as: "pbeam.1001"
CBEAM    1001    1001    3000    999011  0.      0.     1.
                        -.10509 .075298  0.     -.10509 .075298  0.
CBEAM    1011    1001    999011  1010    0.      0.     1.
                        -.10509 .075298  0.     -.10509 .075298  0.
CBEAM    2001    1001    3000    999021  0.      0.     1.
                        -.10509 -.07529  0.     -.10509 -.07529  0.
CBEAM    2011    1001    999021  2010    0.      0.     1.
                        -.10509 -.07529  0.     -.10509 -.07529  0.
$ Elements and Element Properties for region : pbeam.1002
PBEAM    1002    913    11.6019 .489433 1.529           .024
+
         YES    1.      11.6019 .489433 1.529           .024
+
        1.      1.
$ Pset: "pbeam.1002" will be imported as: "pbeam.1002"
CBEAM    1002    1002    1010    999012  0.      0.     1.
                        .441083 -.03116  0.     .441083 -.03116  0.
CBEAM    1022    1002    999012  1020    0.      0.     1.
                        .441083 -.03116  0.     .441083 -.03116  0.
$ Elements and Element Properties for region : pbeam.1003
PBEAM    1003    903    3.87673 .177065 1.029           .106497
+
         YES    1.      3.87673 .177065 1.029           .106497
+
        1.      1.
$ Pset: "pbeam.1003" will be imported as: "pbeam.1003"
CBEAM    10301   1003    1020    101     0.      0.     1.
                        -.09299 -.27408  0.     -.09299 -.27408  0.
CBEAM    10302   1003    101     999013  0.      0.     1.
                        -.09299 -.27408  0.     -.09299 -.27408  0.
CBEAM    10303   1003    999013  1030    0.      0.     1.
                        -.09299 -.27408  0.     -.09299 -.27408  0.
$ Elements and Element Properties for region : pbeam.1004
PBEAM    1004    903    3.87673 .177065 1.029           .106497
+
         YES    1.      3.87673 .177065 1.029           .106497
+
        1.      1.
$ Pset: "pbeam.1004" will be imported as: "pbeam.1004"
CBEAM    1004    1004    1030    999014  0.      0.     1.
                        -.09299 -.27408  0.     -.09299 -.27408  0.
CBEAM    1041    1004    999014  102     0.      0.     1.
                        -.09299 -.27408  0.     -.09299 -.27408  0.
CBEAM    1042    1004    102     1040    0.      0.     1.
                        -.09299 -.27408  0.     -.09299 -.27408  0.
$ Elements and Element Properties for region : pbeam.1005
PBEAM    1005    903    3.87673 .177065 1.029           .106497
+
         YES    1.      3.87673 .177065 1.029           .106497
+
        1.      1.
$ Pset: "pbeam.1005" will be imported as: "pbeam.1005"
CBEAM    1005    1005    1040    999015  0.      0.     1.
                        -.09299 -.27408  0.     -.09299 -.27408  0.
CBEAM    1051    1005    999015  103     0.      0.     1.
                        -.09299 -.27408  0.     -.09299 -.27408  0.
CBEAM    1052    1005    103     1050    0.      0.     1.
                        -.09299 -.27408  0.     -.09299 -.27408  0.
$ Elements and Element Properties for region : pbeam.1006
PBEAM    1006    903    3.87673 .177065 1.029           .106497
+
         YES    1.      3.87673 .177065 1.029           .106497
+
        1.      1.
$ Pset: "pbeam.1006" will be imported as: "pbeam.1006"
CBEAM    1006    1006    1050    999016  0.      0.     1.
                        -.09299 -.27408  0.     -.09299 -.27408  0.
CBEAM    1066    1006    999016  1060    0.      0.     1.
                        -.09299 -.27408  0.     -.09299 -.27408  0.
$ Elements and Element Properties for region : pbeam.1007
PBEAM    1007    903    3.87673 .177065 1.029           .106497
+
         YES    1.      3.87673 .177065 1.029           .106497
+
        1.      1.
$ Pset: "pbeam.1007" will be imported as: "pbeam.1007"
CBEAM    1071    1007    1060    104     0.      0.     1.
                        -.09299 -.27408  0.     -.09299 -.27408  0.
CBEAM    1072    1007    104     999017  0.      0.     1.
                        -.09299 -.27408  0.     -.09299 -.27408  0.
CBEAM    1077    1007    999017  1070    0.      0.     1.
                        -.09299 -.27408  0.     -.09299 -.27408  0.
$ Elements and Element Properties for region : pbeam.1008
PBEAM    1008    903    3.87673 .177065 1.029           .106497
+
         YES    1.      3.87673 .177065 1.029           .106497
+
        1.      1.
$ Pset: "pbeam.1008" will be imported as: "pbeam.1008"
CBEAM    1008    1008    1070    105     0.      0.     1.
                        -.09299 -.27408  0.     -.09299 -.27408  0.
CBEAM    1081    1008    105     999018  0.      0.     1.
                        -.09299 -.27408  0.     -.09299 -.27408  0.
CBEAM    1088    1008    999018  1080    0.      0.     1.
                        -.09299 -.27408  0.     -.09299 -.27408  0.
$ Elements and Element Properties for region : pbeam.1009
PBEAM    1009    903    3.87673 .177065 1.029           .106497
+
         YES    1.      3.87673 .177065 1.029           .106497
+
        1.      1.
$ Pset: "pbeam.1009" will be imported as: "pbeam.1009"
CBEAM    1009    1009    1080    1090    0.      0.     1.
                        -.63471 .128812  0.     -.63471 .128812  0.
$ Elements and Element Properties for region : pbeam.2002
PBEAM    2002    1913   11.6019 .489433 1.529           .024
+
         YES    1.      11.6019 .489433 1.529           .024
+
        1.      1.
$ Pset: "pbeam.2002" will be imported as: "pbeam.2002"
CBEAM    2002    2002    2010    999022  0.      0.     1.
                        .441083 .03116   0.     .441083 .03116   0.
CBEAM    2022    2002    999022  2020    0.      0.     1.
                        .441083 .03116   0.     .441083 .03116   0.
$ Elements and Element Properties for region : pbeam.2003
PBEAM    2003    1903   3.87673 .177065 1.029           .106497
+
         YES    1.      3.87673 .177065 1.029           .106497
+
        1.      1.
$ Pset: "pbeam.2003" will be imported as: "pbeam.2003"
CBEAM    20301   2003    2020    201     0.      0.     1.
                        -.09299 .27408   0.     -.09299 .27408   0.
CBEAM    20302   2003    201     999023  0.      0.     1.
                        -.09299 .27408   0.     -.09299 .27408   0.
CBEAM    20303   2003    999023  2030    0.      0.     1.
                        -.09299 .27408   0.     -.09299 .27408   0.
$ Elements and Element Properties for region : pbeam.2004
PBEAM    2004    1903   3.87673 .177065 1.029           .106497
+
         YES    1.      3.87673 .177065 1.029           .106497
+
        1.      1.
$ Pset: "pbeam.2004" will be imported as: "pbeam.2004"
CBEAM    2004    2004    2030    999024  0.      0.     1.
                        -.09299 .27408   0.     -.09299 .27408   0.
CBEAM    2041    2004    999024  202     0.      0.     1.
                        -.09299 .27408   0.     -.09299 .27408   0.
CBEAM    2042    2004    202     2040    0.      0.     1.
                        -.09299 .27408   0.     -.09299 .27408   0.
$ Elements and Element Properties for region : pbeam.2005
PBEAM    2005    1903   3.87673 .177065 1.029           .106497
+
         YES    1.      3.87673 .177065 1.029           .106497
+
        1.      1.
$ Pset: "pbeam.2005" will be imported as: "pbeam.2005"
CBEAM    2005    2005    2040    999025  0.      0.     1.
                        -.09299 .27408   0.     -.09299 .27408   0.
CBEAM    2051    2005    999025  203     0.      0.     1.
                        -.09299 .27408   0.     -.09299 .27408   0.
CBEAM    2052    2005    203     2050    0.      0.     1.
                        -.09299 .27408   0.     -.09299 .27408   0.
$ Elements and Element Properties for region : pbeam.2006
PBEAM    2006    1903   3.87673 .177065 1.029           .106497
+
         YES    1.      3.87673 .177065 1.029           .106497
+
        1.      1.
$ Pset: "pbeam.2006" will be imported as: "pbeam.2006"
CBEAM    2006    2006    2050    999026  0.      0.     1.
                        -.09299 .27408   0.     -.09299 .27408   0.
CBEAM    2066    2006    999026  2060    0.      0.     1.
                        -.09299 .27408   0.     -.09299 .27408   0.
$ Elements and Element Properties for region : pbeam.2007
PBEAM    2007    1903   3.87673 .177065 1.029           .106497
+
         YES    1.      3.87673 .177065 1.029           .106497
+
        1.      1.
$ Pset: "pbeam.2007" will be imported as: "pbeam.2007"
CBEAM    2071    2007    2060    204     0.      0.     1.
                        -.09299 .27408   0.     -.09299 .27408   0.
CBEAM    2072    2007    204     999027  0.      0.     1.
                        -.09299 .27408   0.     -.09299 .27408   0.
CBEAM    2077    2007    999027  2070    0.      0.     1.
                        -.09299 .27408   0.     -.09299 .27408   0.
$ Elements and Element Properties for region : pbeam.2008
PBEAM    2008    1903   3.87673 .177065 1.029           .106497
+
         YES    1.      3.87673 .177065 1.029           .106497
+
        1.      1.
$ Pset: "pbeam.2008" will be imported as: "pbeam.2008"
CBEAM    2008    2008    2070    205     0.      0.     1.
                        -.09299 .27408   0.     -.09299 .27408   0.
CBEAM    2081    2008    205     999028  0.      0.     1.
                        -.09299 .27408   0.     -.09299 .27408   0.
CBEAM    2088    2008    999028  2080    0.      0.     1.
                        -.09299 .27408   0.     -.09299 .27408   0.
$ Elements and Element Properties for region : pbeam.2009
PBEAM    2009    1903   3.87673 .177065 1.029           .106497
+
         YES    1.      3.87673 .177065 1.029           .106497
+
        1.      1.
$ Pset: "pbeam.2009" will be imported as: "pbeam.2009"
CBEAM    2009    2009    2080    2090    0.      0.     1.
                        -.63471 -.12881  0.     -.63471 -.12881  0.
$ Elements and Element Properties for region : pbeam.3007
PBEAM    3007    901    .84     .1976   .0175           .7903
+
         YES    1.      .84     .1976   .0175           .7903
+
        1.      1.
$ Pset: "pbeam.3007" will be imported as: "pbeam.3007"
CBEAM    3001    3007    3001    9001    0.      0.     1.
CBEAM    3002    3007    9001    13001   0.      0.     1.
CBEAM    3003    3007    3002    3000    0.      0.     1.
CBEAM    3004    3007    3000    28888   0.      0.     1.
CBEAM    3005    3007    28888   3004    0.      0.     1.
CBEAM    3006    3007    13002   9002    0.      0.     1.
CBEAM    3007    3007    9002    18888   0.      0.     1.
CBEAM    3008    3007    18888   3005    0.      0.     1.
CBEAM    3009    3007    3005    3006    0.      0.     1.
CBEAM    3010    3007    3006    3007    0.      0.     1.
CBEAM    13001   3007    13001   3002    0.      0.     1.
CBEAM    30051   3007    3004    13002   0.      0.     1.
$ Elements and Element Properties for region : pbush.10000.c202.c202
PBUSH    10000   K      1.+6    1.+6    1.+6    1.+6    1.+6    1.+6
                 RCV    1.      1.      1.      1.
$ Pset: "pbush.10000.c202.c202" will be imported as: "pbush.10000"
CBUSH    22002   10000   20022   20202                           202
        .5
CBUSH    22003   10000   20023   20203                           202
        .5
$ Elements and Element Properties for region : pbush.10000.c201.c201
PBUSH    1       K      1.+6    1.+6    1.+6    1.+6    1.+6    1.+6
                 RCV    1.      1.      1.      1.
$ Pset: "pbush.10000.c201.c201" will be imported as: "pbush.1"
CBUSH    22001   1       20021   20201                           201
        .5
$ Elements and Element Properties for region : pbush.10000.c102.c102
PBUSH    2       K      1.+6    1.+6    1.+6    1.+6    1.+6    1.+6
                 RCV    1.      1.      1.      1.
$ Pset: "pbush.10000.c102.c102" will be imported as: "pbush.2"
CBUSH    11002   2       10012   10102                           102
        .5
CBUSH    11003   2       10013   10103                           102
        .5
$ Elements and Element Properties for region : pbush.10000.c101.c101
PBUSH    3       K      1.+6    1.+6    1.+6    1.+6    1.+6    1.+6
                 RCV    1.      1.      1.      1.
$ Pset: "pbush.10000.c101.c101" will be imported as: "pbush.3"
CBUSH    11001   3       10011   10101                           101
        .5
$ Elements and Element Properties for region : pbush.20000.c202.c202
PBUSH    20000   K      1.+6    1.+6    1.+6    1.+6    1.+6    1.+6
                 RCV    1.      1.      1.      1.
$ Pset: "pbush.20000.c202.c202" will be imported as: "pbush.20000"
CBUSH    22004   20000   20024   20204                           202
        .5
$ Elements and Element Properties for region : pbush.20000.c102.c102
PBUSH    4       K      1.+6    1.+6    1.+6    1.+6    1.+6    1.+6
                 RCV    1.      1.      1.      1.
$ Pset: "pbush.20000.c102.c102" will be imported as: "pbush.4"
CBUSH    11004   4       10014   10104                           102
        .5
$ Elements and Element Properties for region : cmass2_g.ca5
CMASS2   270011 4.99545  3000    5
CMASS2   270012 4.99545  1010    5
CMASS2   270013 9.99089  999011  5
CMASS2   280011 4.99545  3000    5
CMASS2   280012 4.99545  2010    5
CMASS2   280013 9.99089  999021  5
$ Elements and Element Properties for region : cmass2_g.ca4
CMASS2   270001 5.-6     3000    4
CMASS2   270002 5.-6     1010    4
CMASS2   270003 1.-5     999011  4
CMASS2   280001 5.-6     3000    4
CMASS2   280002 5.-6     2010    4
CMASS2   280003 1.-5     999021  4
$ Elements and Element Properties for region : conm2.c202
CONM2    201     2030    202    .1235    0.      0.      0.
         0.      0.      0.      0.      0.      0.
CONM2    202     2050    202    .1235    0.      0.      0.
         0.      0.      0.      0.      0.      0.
CONM2    203     2070    202    .1235    0.      0.      0.
         0.      0.      0.      0.      0.      0.
CONM2    502     20002   202    .096     0.     1.6      0.
         0.      0.      0.      0.      0.      0.
CONM2    503     20003   202    .096     0.     1.6      0.
         0.      0.      0.      0.      0.      0.
CONM2    504     20004   202    .096     0.     1.6      0.
         0.      0.      0.      0.      0.      0.
CONM2    180001  2010    202     0.      0.      0.      0.
        15.0515  0.     6.32632  0.      0.      0.
CONM2    180002  999022  202     0.      0.      0.      0.
        30.1031  0.     12.6526  0.      0.      0.
CONM2    180003  2020    202     0.      0.      0.      0.
        30.1031  0.     12.6526  0.      0.      0.
CONM2    180004  999023  202     0.      0.      0.      0.
        30.1031  0.     12.6526  0.      0.      0.
CONM2    180005  2030    202     0.      0.      0.      0.
        30.1031  0.     12.6526  0.      0.      0.
CONM2    180006  999024  202     0.      0.      0.      0.
        30.1031  0.     12.6526  0.      0.      0.
CONM2    180007  2040    202     0.      0.      0.      0.
        30.1031  0.     12.6526  0.      0.      0.
CONM2    180008  999025  202     0.      0.      0.      0.
        30.1031  0.     12.6526  0.      0.      0.
CONM2    180009  2050    202     0.      0.      0.      0.
        30.1031  0.     12.6526  0.      0.      0.
CONM2    180010  999026  202     0.      0.      0.      0.
        30.1031  0.     12.6526  0.      0.      0.
CONM2    180011  2060    202     0.      0.      0.      0.
        30.1031  0.     12.6526  0.      0.      0.
CONM2    180012  999027  202     0.      0.      0.      0.
        30.1031  0.     12.6526  0.      0.      0.
CONM2    180013  2070    202     0.      0.      0.      0.
        30.1031  0.     12.6526  0.      0.      0.
CONM2    180014  205     202     0.      0.      0.      0.
        30.1031  0.     12.6526  0.      0.      0.
CONM2    180015  2080    202     0.      0.      0.      0.
        30.1031  0.     12.6526  0.      0.      0.
CONM2    180016  2090    202     0.      0.      0.      0.
        15.0515  0.     6.32632  0.      0.      0.
$ Elements and Element Properties for region : conm2.c201
CONM2    200     200001  201    .1235    0.      0.      0.
         0.      0.      0.      0.      0.      0.
CONM2    501     20001   201    .09323  -.746   1.4652   0.
         0.      0.      0.      0.      0.      0.
$ Elements and Element Properties for region : conm2.c102
CONM2    101     1030    102    .1235    0.      0.      0.
         0.      0.      0.      0.      0.      0.
CONM2    102     1050    102    .1235    0.      0.      0.
         0.      0.      0.      0.      0.      0.
CONM2    103     1070    102    .1235    0.      0.      0.
         0.      0.      0.      0.      0.      0.
CONM2    402     10002   102    .096     0.     -1.6     0.
         0.      0.      0.      0.      0.      0.
CONM2    403     10003   102    .096     0.     -1.6     0.
         0.      0.      0.      0.      0.      0.
CONM2    404     10004   102    .096     0.     -1.6     0.
         0.      0.      0.      0.      0.      0.
CONM2    170001  1010    102     0.      0.      0.      0.
        15.0515  0.     6.32632  0.      0.      0.
CONM2    170002  999012  102     0.      0.      0.      0.
        30.1031  0.     12.6526  0.      0.      0.
CONM2    170003  1020    102     0.      0.      0.      0.
        30.1031  0.     12.6526  0.      0.      0.
CONM2    170004  999013  102     0.      0.      0.      0.
        30.1031  0.     12.6526  0.      0.      0.
CONM2    170005  1030    102     0.      0.      0.      0.
        30.1031  0.     12.6526  0.      0.      0.
CONM2    170006  999014  102     0.      0.      0.      0.
        30.1031  0.     12.6526  0.      0.      0.
CONM2    170007  1040    102     0.      0.      0.      0.
        30.1031  0.     12.6526  0.      0.      0.
CONM2    170008  999015  102     0.      0.      0.      0.
        30.1031  0.     12.6526  0.      0.      0.
CONM2    170009  1050    102     0.      0.      0.      0.
        30.1031  0.     12.6526  0.      0.      0.
CONM2    170010  999016  102     0.      0.      0.      0.
        30.1031  0.     12.6526  0.      0.      0.
CONM2    170011  1060    102     0.      0.      0.      0.
        30.1031  0.     12.6526  0.      0.      0.
CONM2    170012  999017  102     0.      0.      0.      0.
        30.1031  0.     12.6526  0.      0.      0.
CONM2    170013  1070    102     0.      0.      0.      0.
        30.1031  0.     12.6526  0.      0.      0.
CONM2    170014  105     102     0.      0.      0.      0.
        30.1031  0.     12.6526  0.      0.      0.
CONM2    170015  1080    102     0.      0.      0.      0.
        30.1031  0.     12.6526  0.      0.      0.
CONM2    170016  1090    102     0.      0.      0.      0.
        15.0515  0.     6.32632  0.      0.      0.
$ Elements and Element Properties for region : conm2.c101
CONM2    100     100001  101    .1235    0.      0.      0.
         0.      0.      0.      0.      0.      0.
CONM2    401     10001   101    .09323  -.746   -1.4652  0.
         0.      0.      0.      0.      0.      0.
$ Elements and Element Properties for region : conm2.c0
CONM2    104     1090    0      .0909   2.5      0.      0.
         0.      0.      0.      0.      0.      0.
CONM2    105     1090    0      .01309  1.3      0.      0.
         0.      0.      0.      0.      0.      0.
CONM2    204     2090    0      .0909   2.5      0.      0.
         0.      0.      0.      0.      0.      0.
CONM2    205     2090    0      .01309  1.3      0.      0.
         0.      0.      0.      0.      0.      0.
CONM2    301     3002    0      .98617  -.1771   0.      0.
         0.      0.      0.      0.      0.      0.
CONM2    302     3004    0      2.19745 -.31978  0.      0.
        1.-6     0.     3.31889  0.      0.      0.
CONM2    303     3006    0      1.10958 .011368  0.      0.
         0.      0.      0.      0.      0.      0.
CONM2    9001    9001    0      .0062    0.      0.      0.
         0.      0.      0.      0.      0.      0.
CONM2    9002    9002    0      .0062    0.      0.      0.
         0.      0.      0.      0.      0.      0.
CONM2    9003    9003    0      .0062    0.      0.      0.
         0.      0.      0.      0.      0.      0.
CONM2    9004    9004    0      .0062    0.      0.      0.
         0.      0.      0.      0.      0.      0.
CONM2    9005    9005    0      .0062    0.      0.      0.
         0.      0.      0.      0.      0.      0.
CONM2    9006    9006    0      .0062    0.      0.      0.
         0.      0.      0.      0.      0.      0.
CONM2    9110    1010    0      .049825  0.      0.      0.
         0.      0.      0.      0.      0.      0.
CONM2    9112    1012    0      .024912  0.      0.      0.
         0.      0.      0.      0.      0.      0.
CONM2    9200    13002   0      .1565    0.      0.      0.
         0.      0.      0.      0.      0.      0.
CONM2    9210    2010    0      .049825  0.      0.      0.
         0.      0.      0.      0.      0.      0.
CONM2    9212    2012    0      .024912  0.      0.      0.
         0.      0.      0.      0.      0.      0.
CONM2    9300    3002    0      .1155    0.      0.      0.
         0.      0.      0.      0.      0.      0.
$ Referenced Material Records
$ Material Record : mat1.100
$ Description of Material :
MAT1     100    292900. 72230.  1.02755 .009521
$ Material Record : mat1.901
$ Description of Material :
MAT1     901    2.01+9  8.04+8  .25     .02493
$ Material Record : mat1.903
$ Description of Material :
MAT1     903    2.2218+61.141+6 -.02634 .00614
$ Material Record : mat1.905
$ Description of Material :
MAT1     905    6.66+6  1.252+6 1.65974 .01265
$ Material Record : mat1.913
$ Description of Material :
MAT1     913    206554. 146063. -.292928.00614
$ Material Record : mat1.943
$ Description of Material :
MAT1     943    6.66+6  1.252+6 1.65974
$ Material Record : mat1.1903
$ Description of Material :
MAT1     1903   1.701+6 282169. 2.01423 .00614
$ Material Record : mat1.1913
$ Description of Material :
MAT1     1913   90988.6 84820.9 -.463643.00614
$ Multipoint Constraints of the Entire Model
RBE2     1301    1090    123456  3011
RBE2     1302    1090    123456  3012
RBE2     1303    1090    123456  3013
RBE2     1304    1090    123456  3014
RBE2     1401    2090    123456  4011
RBE2     1402    2090    123456  4012
RBE2     1403    2090    123456  4013
RBE2     1404    2090    123456  4014
RBE2     1501    10001   123456  5011
RBE2     1502    10001   123456  5012
RBE2     1503    20001   123456  5021
RBE2     1504    20001   123456  5022
RBE2     1601    10002   123456  6011
RBE2     1602    10002   123456  6012
RBE2     1603    20002   123456  6021
RBE2     1604    20002   123456  6022
RBE2     1701    10003   123456  7011
RBE2     1702    10003   123456  7012
RBE2     1703    20003   123456  7021
RBE2     1704    20003   123456  7022
RBE2     1801    10004   123456  8011
RBE2     1802    10004   123456  8012
RBE2     1803    20004   123456  8021
RBE2     1804    20004   123456  8022
RBE2     70001   1030    123456  10102
RBE2     70002   1050    123456  10103
RBE2     70003   1070    123456  10104
RBE2     70004   100001  123456  10101
RBE2     70101   10012   123456  10002
RBE2     70102   10013   123456  10003
RBE2     70103   10014   123456  10004
RBE2     70104   10011   123456  10001
RBE2     80001   2030    123456  20202
RBE2     80002   2050    123456  20203
RBE2     80003   2070    123456  20204
RBE2     80004   200001  123456  20201
RBE2     80201   20022   123456  20002
RBE2     80202   20023   123456  20003
RBE2     80203   20024   123456  20004
RBE2     80204   20021   123456  20001
RBE2     500001  1090    123456  1091    1092
RBE2     500002  2090    123456  2091    2092
RBE2     600001  1010    123456  1013
RBE2     600002  2010    123456  2013
RBE2     700001  1080    123456  9003
RBE2     700002  1080    123456  9004
RBE2     700003  2080    123456  9005
RBE2     700004  2080    123456  9006
RBE2     900001  101001  123456  100001
RBE2     900002  202002  123456  200001
RBE2     1000001 101     123456  1
RBE2     1000002 101     123456  2
RBE2     1000003 102     123456  3
RBE2     1000004 102     123456  4
RBE2     1000005 103     123456  5
RBE2     1000006 103     123456  6
RBE2     1000007 104     123456  7
RBE2     1000008 104     123456  8
RBE2     1000009 105     123456  9
RBE2     1000010 105     123456  10
RBE2     2000001 201     123456  11
RBE2     2000002 201     123456  12
RBE2     2000003 202     123456  13
RBE2     2000004 202     123456  14
RBE2     2000005 203     123456  15
RBE2     2000006 203     123456  16
RBE2     2000007 204     123456  17
RBE2     2000008 204     123456  18
RBE2     2000009 205     123456  19
RBE2     2000010 205     123456  20
$ Nodes of the Entire Model
GRID     1              3.48    -17.87   0.
GRID     2              8.11    -16.     0.
GRID     3              7.22    -27.14   0.
GRID     4              11.86   -25.27   0.
GRID     5              10.97   -36.42   0.
GRID     6              15.61   -34.54   0.
GRID     7              14.72   -45.69   0.
GRID     8              19.35   -43.81   0.
GRID     9              18.46   -54.96   0.
GRID     10             23.1    -53.09   0.
GRID     11             3.48    17.87    0.
GRID     12             8.11    16.      0.
GRID     13             7.22    27.14    0.
GRID     14             11.86   25.27    0.
GRID     15             10.97   36.42    0.
GRID     16             15.61   34.54    0.
GRID     17             14.72   45.69    0.
GRID     18             19.35   43.81    0.
GRID     19             18.46   54.96    0.
GRID     20             23.1    53.09    0.
GRID     101            6.696   -16.571  0.
GRID     102            10.443  -25.841  0.
GRID     103            14.191  -35.115  0.
GRID     104            17.936  -44.384  0.
GRID     105            21.677  -53.663  0.
GRID     201            6.696   16.571   0.
GRID     202            10.443  25.841   0.
GRID     203            14.191  35.115   0.
GRID     204            17.936  44.384   0.
GRID     205            21.677  53.663   0.
GRID     1000           3.08767 -7.6407  0.
GRID     1010           3.09142 -7.65    0.
GRID     1011           .8      -7.65    0.
GRID     1012           8.66    -7.65    0.
GRID     1013           -2.34   -7.65    0.
GRID     1020           5.912   -14.63   0.
GRID     1030           9.09646 -22.51   0.
GRID     1040           11.7031 -28.961  0.
GRID     1050           14.6731 -36.3055 0.
GRID     1060           17.4955 -43.2941 0.
GRID     1070           20.2498 -50.101  0.
GRID     1080           23.287  -57.626  0.
GRID     1090           24.4    -60.25   0.
GRID     1091           21.9565 -60.25   0.
GRID     1092           30.6965 -60.25   0.
GRID     2000           3.08767 7.6407   0.
GRID     2010           3.09142 7.65     0.
GRID     2011           .8      7.65     0.
GRID     2012           8.66    7.65     0.
GRID     2013           -2.34   7.65     0.
GRID     2020           5.9121  14.63    0.
GRID     2030           9.0965  22.51    0.
GRID     2040           11.7032 28.961   0.
GRID     2050           14.6731 36.3055  0.
GRID     2060           17.4955 43.2941  0.
GRID     2070           20.2498 50.101   0.
GRID     2080           23.287  57.6259  0.
GRID     2090           24.4    60.25    0.
GRID     2091           21.9565 60.25    0.
GRID     2092           30.6965 60.25    0.
GRID     3000            0.      0.      0.
GRID     3001           -15.55   0.      0.
GRID     3002           -6.49    0.      0.
GRID     3004           3.73     0.      0.
GRID     3005           8.66     0.      0.
GRID     3006           16.771   0.      0.
GRID     3007           18.      0.      0.
GRID     3011           26.8165 -60.25  5.5
GRID     3012           30.6965 -60.25  5.5
GRID     3013           26.8165 -60.25  -5.5
GRID     3014           30.6965 -60.25  -5.5
GRID     4011           26.8165 60.25   5.5
GRID     4012           30.6965 60.25   5.5
GRID     4013           26.8165 60.25   -5.5
GRID     4014           30.6965 60.25   -5.5
GRID     5011    101    1.63     0.      0.
GRID     5012    101    1.63    -12.45   0.
GRID     5021    201    1.63     0.      0.
GRID     5022    201    1.63    12.45    0.
GRID     6011    102    1.03    -4.44-16 0.
GRID     6012    102    1.03    -14.75   0.
GRID     6021    202    1.03    4.441-16 0.
GRID     6022    202    1.03    14.75    0.
GRID     7011    102    1.03    -14.88   0.
GRID     7012    102    1.03    -29.63   0.
GRID     7021    202    1.03    14.88    0.
GRID     7022    202    1.03    29.63    0.
GRID     8011    102    1.03    -29.76   0.
GRID     8012    102    1.03    -44.51   0.
GRID     8021    202    1.03    29.76    0.
GRID     8022    202    1.03    44.51    0.
GRID     9001           -12.36   0.      0.
GRID     9002           7.36     0.      0.
GRID     9003           18.48   -57.23   0.
GRID     9004           25.     -57.23   0.
GRID     9005           18.48   57.23    0.
GRID     9006           25.     57.23    0.
GRID     10001   101    1.63    -4.7648  0.
GRID     10002   102    1.03    -5.7744  0.
GRID     10003   102    1.03    -20.6544 0.
GRID     10004   102    1.03    -35.5344 0.
GRID     10011   101    .01     -4.7648  0.
GRID     10012   102    .01     -5.7744  0.
GRID     10013   102    .01     -20.6544 0.
GRID     10014   102    .01     -35.5344 0.
GRID     10101   101    -.01    -4.7648  0.
GRID     10102   102    -.01    -5.7744  0.
GRID     10103   102    -.01    -20.6544 0.
GRID     10104   102    -.01    -35.5344 0.
GRID     13001          -10.93   0.      0.
GRID     13002          5.08     0.      0.
GRID     18888          8.2      0.      0.
GRID     20001   201    1.63    4.7648   0.
GRID     20002   202    1.03    5.7744   0.
GRID     20003   202    1.03    20.6544  0.
GRID     20004   202    1.03    35.5344  0.
GRID     20021   201    .01     4.7648   0.
GRID     20022   202    .01     5.7744   0.
GRID     20023   202    .01     20.6544  0.
GRID     20024   202    .01     35.5344  0.
GRID     20201   201    -.01    4.7648   0.
GRID     20202   202    -.01    5.7744   0.
GRID     20203   202    -.01    20.6544  0.
GRID     20204   202    -.01    35.5344  0.
GRID     28888          3.48     0.      0.
GRID     100001         10.17   -4.855   0.
GRID     101001         8.66    -4.20614 0.
GRID     200001         10.17   4.855    0.
GRID     202002         8.66    4.20614  0.
GRID     888011         .57     -14.698  0.
GRID     888012         3.607   -22.211  0.
GRID     888013         6.426   -29.186  0.
GRID     888014         9.246   -36.162  0.
GRID     888015         12.065  -43.138  0.
GRID     888016         14.885  -50.114  0.
GRID     888017         17.921  -57.626  0.
GRID     888021         .57     14.698   0.
GRID     888022         3.607   22.211   0.
GRID     888023         6.426   29.186   0.
GRID     888024         9.246   36.162   0.
GRID     888025         12.065  43.138   0.
GRID     888026         14.885  50.114   0.
GRID     888027         17.921  57.626   0.
GRID     999011         1.5457  -3.825   0.
GRID     999012         4.5018  -11.14   0.
GRID     999013         7.5043  -18.57   0.
GRID     999014         10.4    -25.735  0.
GRID     999015         13.3003 -32.9355 0.
GRID     999016         16.0843 -39.8    0.
GRID     999017         18.8726 -46.6975 0.
GRID     999018         22.4915 -55.6945 0.
GRID     999021         1.5457  3.825    0.
GRID     999022         4.5018  11.14    0.
GRID     999023         7.5043  18.57    0.
GRID     999024         10.4    25.735   0.
GRID     999025         13.3003 32.9355  0.
GRID     999026         16.0843 39.8     0.
GRID     999027         18.8726 46.6975  0.
GRID     999028         22.4915 55.6945  0.
$ Loads for Load Case : DEFAULT.SC1
$ Referenced Coordinate Frames
CORD2R   101            13.64   -1.16    0.     13.64   -1.16   13.6892
        26.2171 -6.56476 0.
CORD2R   102            9.753   -16.016  0.     9.753   -16.016 18.7519
        27.1376 -8.98689 0.
CORD2R   201            13.64   1.16     0.     13.64   1.16    13.6892
        26.2171 6.56476  0.
CORD2R   202            9.753   16.016   0.     9.753   16.016  18.7519
        27.1376 8.98689  0.
ENDDATA 0a635e99
